%nprocshared=8
%nprocl=1
# opt freq b3lyp/def2tzvp geom=connectivity

int622oh

0 1
 C                 -0.76205400    1.46398800   -0.19572600
 H                 -0.33704300    1.84820800   -1.13226100
 H                 -0.39179100    2.07444800    0.64030400
 H                 -1.85457200    1.60227800   -0.24282900
 C                 -0.42844600    0.00867200   -0.00237200
 O                 -0.40010700   -0.27755900    1.37792100
 H                 -0.51382000   -1.23415700    1.56105300
 O                  0.79775700   -0.44912300   -0.59071900
 O                 -1.37834100   -0.84430500   -0.60732200
 C                  2.01670900    0.07560500   -0.02949700
 H                  2.78838400   -0.56055600   -0.47835400
 H                  2.13606000    1.11913800   -0.33491300
 H                  2.00364400   -0.02240100    1.06182600
 H                 -0.94258400   -1.54865500   -1.14829600

 1 2 1.0 3 1.0 4 1.0 5 1.0
 2
 3
 4
 5 6 1.0 8 1.0 9 1.0
 6 7 1.0
 7
 8 10 1.0
 9 14 1.0
 10 11 1.0 12 1.0 13 1.0
 11
 12
 13
 14

