%nprocshared=8
%nprocl=1
# opt freq b3lyp/def2tzvp geom=connectivity

Title Card Required

0 1
 C                 -1.78042200   -0.54041300   -0.00004800
 H                 -1.63843400   -1.63301300   -0.01416600
 H                 -2.37358200   -0.28976700    0.89375100
 H                 -2.38663200   -0.26749700   -0.87833400
 C                 -0.49022900    0.20205100   -0.00011600
 O                 -0.28852400    1.39251000    0.00001300
 O                  0.54552700   -0.71107600   -0.00017700
 C                  1.89315900   -0.17065100    0.00009800
 H                  2.51365100   -1.07265000    0.00183100
 H                  2.04754100    0.43144000   -0.90078300
 H                  2.04637900    0.43408800    0.89941300

 1 2 1.0 3 1.0 4 1.0 5 1.0
 2
 3
 4
 5 6 2.0 7 1.0
 6
 7 8 1.0
 8 9 1.0 10 1.0 11 1.0
 9
 10
 11

