%nprocshared=8
%nprocl=1
# freq b3lyp/def2tzvp geom=connectivity

pc614 freqs18

0 1
 C                  1.79915300   -0.60356300    0.00245300
 O                  2.76682000   -0.09744000   -0.49091200
 O                  0.92716900   -1.35274900   -0.74431400
 O                 -0.30350600    1.65566300   -0.38743100
 O                 -2.00440200   -0.70448100   -0.49218400
 C                 -2.92682200   -1.40235300    0.33431000
 H                 -2.61782300   -1.40390700    1.38529300
 H                 -3.88239300   -0.88574300    0.25553100
 H                 -3.06301000   -2.43612000    0.00253600
 H                 -1.08910800    1.10106100   -0.46051000
 H                 -1.15902900   -1.17217800   -0.50849100
 C                  1.42799300   -0.57049200    1.45522800
 H                  1.73248200   -1.51218200    1.91855800
 H                  1.95660200    0.25018400    1.93106000
 H                  0.35440600   -0.45284300    1.58503200
 C                 -0.68094700    2.91430100    0.14364100
 H                  0.18448200    3.57335000    0.07261300
 H                 -1.50355500    3.36933800   -0.41957900
 H                 -0.97736100    2.84854200    1.19828100
 H                  1.25940000   -1.31480000   -1.65539700

 1 2 2.0 3 1.0 12 1.0
 2
 3 20 1.0
 4 10 1.0 16 1.0
 5 6 1.0 11 1.0
 6 7 1.0 8 1.0 9 1.0
 7
 8
 9
 10
 11
 12 13 1.0 14 1.0 15 1.0
 13
 14
 15
 16 17 1.0 18 1.0 19 1.0
 17
 18
 19
 20

