%nprocshared=8
%nprocl=1
# freq b3lyp/def2tzvp geom=connectivity

freq-s12

0 1
 C                  1.42976000   -0.80580700   -0.04950100
 C                  2.67314000    0.04477900   -0.17206700
 H                  3.53273300   -0.52765000    0.19954900
 H                  2.83596800    0.29250800   -1.22156800
 H                  2.59398300    0.97184900    0.40406100
 O                  0.92723200   -1.44343400   -0.93683200
 O                 -0.25664700    1.55562500   -0.53469600
 O                 -2.02275400   -0.42634000    0.57617600
 C                 -2.59355700   -1.32541800   -0.38315200
 H                 -3.40016500   -0.77930800   -0.87815100
 H                 -1.84971800   -1.63922200   -1.12442400
 H                 -3.01694200   -2.21083500    0.10921100
 H                 -1.27289000   -0.86582200    1.01395300
 H                 -0.95299100    0.91202900   -0.28889100
 C                 -0.54684700    2.80947600    0.06727800
 H                 -0.62713600    2.73705300    1.16301500
 H                  0.27883000    3.48314200   -0.18091300
 H                 -1.47890500    3.24602600   -0.32006200
 O                  0.89591000   -0.90602600    1.21552700
 H                  1.23233700   -0.19655600    1.78746700

 1 2 1.0 6 2.0 19 1.0
 2 3 1.0 4 1.0 5 1.0
 3
 4
 5
 6
 7 14 1.0 15 1.0
 8 9 1.0 13 1.0
 9 10 1.0 11 1.0 12 1.0
 10
 11
 12
 13
 14
 15 16 1.0 17 1.0 18 1.0
 16
 17
 18
 19 20 1.0
 20

