%nprocshared=8
%nprocl=1
# opt b3lyp/def2tzvp geom=connectivity optcyc=30

pc612oh opt

0 1
 C                 -1.07353000   -0.51390700    0.00628000
 O                 -2.15129400   -0.11009500    0.42053700
 O                 -0.07705400   -0.78050700    1.22070900
 O                 -0.31150500    0.69989200   -0.63727700
 O                  1.85145200    0.53063400    0.45658100
 C                  2.85130600   -0.18410900   -0.30420100
 H                  2.39144000   -0.96016800   -0.92278200
 H                  3.36558200    0.56121300   -0.92199200
 H                  3.54342700   -0.61710400    0.42721300
 H                  0.94354100    0.84704200   -0.26006400
 H                  1.09681900   -0.26320100    1.01490700
 C                 -0.74190700   -1.65984800   -0.90448900
 H                 -0.04661000   -2.37137400   -0.43738300
 H                 -1.66568700   -2.21049800   -1.14460100
 H                 -0.30573000   -1.31140500   -1.85108300
 H                 -0.63720700   -0.31623500    1.84703200
 C                 -0.98752800    1.90733900   -0.27677100
 H                 -1.71415200    2.14631500   -1.02497300
 H                 -1.47642600    1.77462700    0.66570800
 H                 -0.27783900    2.70455000   -0.20129700

 1 2 2.0 12 1.0
 2
 3 16 1.0
 4 17 1.0
 5 6 1.0
 6 7 1.0 8 1.0 9 1.0
 7
 8
 9
 10
 11
 12 13 1.0 14 1.0 15 1.0
 13
 14
 15
 16
 17 18 1.0 19 1.0 20 1.0
 18
 19
 20

