%nprocshared=8
%nprocl=1
# freq b3lyp/def2tzvp geom=connectivity

pc623 freqs17

0 1
 C                  1.72152500   -0.38250200   -0.08245700
 C                  2.53208600    0.74221400    0.51611500
 H                  3.28295700    1.07279400   -0.20505700
 H                  1.87076500    1.58209900    0.73340000
 H                  3.01418600    0.40600200    1.42931300
 O                  1.11145800   -0.10996900   -1.25635100
 O                 -0.79781300    1.60180700   -0.18223400
 O                  1.60814200   -1.48010700    0.40401300
 O                 -1.34287200   -1.19745100    0.49533200
 C                 -2.24792900   -2.10790500   -0.11708400
 H                 -2.19645500   -3.09601700    0.35019200
 H                 -3.25395800   -1.71478600    0.02692000
 H                 -2.05846800   -2.21123400   -1.19023200
 H                 -0.44008000   -1.54923500    0.40497600
 H                 -1.13356900    0.70892600    0.02025400
 C                 -1.76316400    2.57017900    0.20526000
 H                 -2.00424700    2.49752100    1.27045700
 H                 -1.33684400    3.55432000    0.01159600
 H                 -2.68747300    2.47596300   -0.37441500
 H                  0.85676400    0.82749100   -1.29448300

 1 2 1.0 6 1.0 8 2.0
 2 3 1.0 4 1.0 5 1.0
 3
 4
 5
 6 20 1.0
 7 15 1.0 16 1.0
 8
 9 10 1.0 14 1.0
 10 11 1.0 12 1.0 13 1.0
 11
 12
 13
 14
 15
 16 17 1.0 18 1.0 19 1.0
 17
 18
 19
 20

