%nprocshared=8
%nprocl=1
# freq b3lyp/def2tzvp geom=connectivity

pc622oh freqs24

0 1
 C                 -1.61375400   -0.67084600    0.08545500
 C                 -2.34107700   -0.04671000   -1.07436300
 H                 -3.40009900    0.09243000   -0.84804800
 H                 -1.89006000    0.92722400   -1.27670600
 H                 -2.23470800   -0.67631100   -1.95330900
 O                 -1.79042000   -0.08853000    1.28960900
 O                  0.51529200    1.57039600   -0.45861500
 O                 -0.89296600   -1.63290400   -0.00132600
 O                  1.76744300   -0.79989200    0.45425700
 H                  0.93019000   -1.29208200    0.49481100
 H                  1.05389400    0.81230900   -0.16154500
 C                  1.02781100    2.75061800    0.13197200
 H                  2.06512000    2.94380300   -0.16569700
 H                  0.41695000    3.58624000   -0.21278000
 H                  0.98392900    2.71905300    1.22723600
 H                 -2.29365700    0.73104100    1.20241700
 C                  2.70542700   -1.54223200   -0.31527900
 H                  2.34825600   -1.71945800   -1.33470600
 H                  3.62319800   -0.95693200   -0.36299200
 H                  2.93175500   -2.50485700    0.15320100

 1 2 1.0 6 1.0 8 2.0
 2 3 1.0 4 1.0 5 1.0
 3
 4
 5
 6 16 1.0
 7 11 1.0 12 1.0
 8
 9 10 1.0 17 1.0
 10
 11
 12 13 1.0 14 1.0 15 1.0
 13
 14
 15
 16
 17 18 1.0 19 1.0 20 1.0
 18
 19
 20

