%nprocshared=8
%nprocl=1
# opt freq b3lyp/def2tzvp geom=connectivity

Title Card Required

0 1
 O                  0.02577100   -0.11099100   -1.14939000
 O                 -1.92894800    0.60883300    0.11036600
 H                 -0.83710400    0.31607800   -0.81325400
 H                 -1.41162400    0.14103300    0.83111500
 O                 -0.14750300   -0.61270900    1.22825800
 H                  0.36850500   -0.22366000    1.95442700
 C                  0.82383900   -0.44969600   -0.12006000
 C                  1.47401000   -1.80890600   -0.24897000
 H                  0.69618100   -2.57189700   -0.31837900
 H                  2.09849500   -2.00476200    0.62610200
 H                  2.09695600   -1.84192700   -1.14915300
 O                  1.77560100    0.49187600    0.22392400
 C                 -3.13483800   -0.08746200   -0.16518300
 H                 -3.83426100    0.01769700    0.67315700
 H                 -3.58256900    0.36094400   -1.05610600
 H                 -2.95295700   -1.15497900   -0.35222400
 C                  1.46679200    1.86922600   -0.02895700
 H                  2.33871900    2.42641100    0.31788700
 H                  1.30933600    2.03970100   -1.09740900
 H                  0.57803000    2.18981000    0.52747000

 1 7 1.0
 2 4 1.0 13 1.0
 3
 4
 5 6 1.0
 6
 7 8 1.0 12 1.0
 8 9 1.0 10 1.0 11 1.0
 9
 10
 11
 12 17 1.0
 13 14 1.0 15 1.0 16 1.0
 14
 15
 16
 17 18 1.0 19 1.0 20 1.0
 18
 19
 20

