%nprocshared=8
%nprocl=1
# opt=(calcfc,ts,noeigentest) freq=noraman b3lyp/def2tzvp geom=connectivity

Title Card Required

0 1
 C                  0.54731900   -0.08745300    0.30110600
 C                  1.56438500   -0.95899100   -0.34205200
 H                  2.50354900   -0.40905500   -0.51540600
 H                  1.78677200   -1.82521700    0.30057900
 H                  1.22487000   -1.34161000   -1.31895100
 O                  0.22129500    0.10970700    1.45306400
 C                 -2.03913200   -0.29833100   -0.01614600
 H                 -2.29846100   -1.36131500    0.04766900
 H                 -2.75438300    0.24413400   -0.63639100
 H                 -1.96064100    0.13134800    0.99406800
 O                 -0.76037700   -0.24664100   -0.68028400
 H                 -0.43855000    0.96659300   -1.06585200
 O                  0.67103300    1.33724100   -0.47403400
 H                  0.44579100    2.06131900    0.14687200

 1 2 1.0 6 2.0
 2 3 1.0 4 1.0 5 1.0
 3
 4
 5
 6
 7 8 1.0 9 1.0 10 1.0 11 1.0
 8
 9
 10
 11
 12
 13 14 1.0
 14

