%nprocshared=8
%nprocl=1
# opt=(calcfc,ts,noeigentest) freq=noraman b3lyp/def2tzvp geom=connectivity

Title Card Required

0 1
 C                  0.62947700    0.15352500   -0.23453200
 H                  1.42835000   -1.57426200    0.78960200
 O                  1.28228900   -0.26378200   -1.16150300
 O                  0.81311800   -0.85296700    1.04528000
 O                 -0.82663500   -0.62165700   -0.30796600
 C                  0.49700300    1.50661800    0.36671500
 H                  1.49228700    1.98039800    0.43326500
 H                 -0.13290400    2.16203600   -0.25193000
 H                  0.08799300    1.48214000    1.38723800
 C                 -2.05462500    0.07944000   -0.06695900
 H                 -2.17619200    0.81192900   -0.87294100
 H                 -2.84332400   -0.68048000   -0.13109700
 H                 -2.05407800    0.56303000    0.91263200
 H                 -0.38343900   -1.27503100    0.73540900

 1 3 2.0 6 1.0
 2 4 1.0
 3
 4
 5 10 1.0
 6 7 1.0 8 1.0 9 1.0
 7
 8
 9
 10 11 1.0 12 1.0 13 1.0
 11
 12
 13
 14

