%nprocshared=8
%nprocl=1
# opt=(calcfc,ts,noeigentest) freq=noraman b3lyp/def2tzvp geom=connectivity

Title Card Required

0 1
 C                  1.07825500   -0.53899000    0.01370800
 O                  2.14102700   -0.22516000    0.53166000
 O                  0.35862200    0.74456100   -0.59744200
 O                  0.04669600   -0.84123400    1.15943500
 O                 -1.84408200    0.51479100    0.45963800
 C                 -2.84600300   -0.20206300   -0.29642400
 H                 -2.39271800   -1.00752700   -0.88135700
 H                 -3.56339100   -0.59750500    0.43202000
 H                 -3.32918900    0.53718600   -0.94567400
 H                 -1.13116000   -0.26236400    1.03040000
 H                 -0.89592200    0.80826900   -0.26578400
 C                  0.76387000   -1.57597500   -1.02479000
 H                  0.27218000   -1.14205100   -1.90674600
 H                  1.70198500   -2.04251900   -1.36613100
 H                  0.12316000   -2.37217900   -0.62074300
 H                  0.94550459    1.35208758   -0.14128382
 C                  0.59150947   -0.38027634    2.39862680
 H                  1.13370413   -1.17476082    2.86736911
 H                  1.25133189    0.44166324    2.21437235
 H                 -0.20285020   -0.06281920    3.04136600

 1 2 2.0 12 1.0
 2
 3 16 1.0
 4 17 1.0
 5 6 1.0
 6 7 1.0 8 1.0 9 1.0
 7
 8
 9
 10
 11
 12 13 1.0 14 1.0 15 1.0
 13
 14
 15
 16
 17 18 1.0 19 1.0 20 1.0
 18
 19
 20

