%nprocshared=8
%nprocl=1
# opt=(calcfc,ts,noeigentest) freq=noraman b3lyp/def2tzvp geom=connectivity

ts613oh

0 1
 C                  0.78584700   -0.65578100   -0.14861500
 H                  0.06360500   -1.23787300    1.73831300
 C                  2.27412300   -0.77598700   -0.02660600
 H                  2.55776700   -1.83592100    0.06097800
 H                  2.77016100   -0.38531900   -0.92741900
 H                  2.67160700   -0.24672000    0.84823800
 O                  0.01456100   -1.42431800   -0.72977600
 O                  0.41044000    0.77580900   -0.68748300
 O                  0.22200500   -0.39071200    1.29111300
 O                 -1.81679500    0.65008500    0.34644300
 C                 -2.70425200   -0.33162000   -0.26636100
 H                 -3.25591500    0.21188900   -1.03923900
 H                 -2.10729100   -1.15218700   -0.70351900
 H                 -3.37449300   -0.68849000    0.51909000
 H                 -1.10235600    0.09779000    1.05636100
 H                 -0.88196700    0.85314000   -0.44546400
 C                  1.04950700    1.91783600   -0.06645000
 H                  1.01259900    1.82688100    1.02451300
 H                  2.08097600    1.95064400   -0.42956200
 H                  0.49225900    2.79256100   -0.41647200

 1 3 1.0 7 2.0
 2 9 1.0
 3 4 1.0 5 1.0 6 1.0
 4
 5
 6
 7
 8 17 1.0
 9
 10 11 1.0
 11 12 1.0 13 1.0 14 1.0
 12
 13
 14
 15
 16
 17 18 1.0 19 1.0 20 1.0
 18
 19
 20

