%chk=C:\Users\214584429\Google Drive\214584429 MONSURAT\Def2TZVP-COOH\ts611h.chk
# opt=(calcfc,ts,noeigentest) upm6 geom=connectivity

Title Card Required

0 2
 C                 -1.13612800   -0.23581600    0.02734700
 H                 -0.11694900   -1.12386100    1.77378300
 C                 -1.68362200   -1.24376100   -1.00022100
 H                 -2.65930600   -0.93761300   -1.31520400
 H                 -1.03053200   -1.28017000   -1.84700800
 H                 -1.74143000   -2.21382500   -0.55241200
 O                 -2.03634200    0.47494900    0.88135300
 O                 -0.15463700    0.77578800   -0.70760200
 O                 -0.06199400   -1.36187000    0.84538000
 O                  1.77743100   -0.52336100   -0.40078700
 C                  2.98530400   -0.04385000    0.19588200
 H                  3.44417100    0.67207200   -0.45357600
 H                  2.76046700    0.41847700    1.13428600
 H                  3.65506600   -0.86330600    0.35339500
 H                  1.02134500   -1.07642500    0.31782000
 H                  0.94800200    0.20864100   -0.63518900
 C                 -0.20366300    2.08468100   -0.13376000
 H                 -0.20362600    2.81655700   -0.91430900
 H                 -1.09509700    2.18527100    0.44944500
 H                  0.65104900    2.23159600    0.49296400
 H                 -1.60017400    0.67101500    1.71376900

 1 3 1.0 7 1.0
 2 9 1.0
 3 4 1.0 5 1.0 6 1.0
 4
 5
 6
 7 21 1.0
 8 17 1.0
 9
 10 11 1.0
 11 12 1.0 13 1.0 14 1.0
 12
 13
 14
 15
 16
 17 18 1.0 19 1.0 20 1.0
 18
 19
 20
 21

