%nprocshared=8
%nprocl=1
# opt=(calcfc,ts,noeigentest) freq=noraman b3lyp/def2tzvp geom=connectivity

ts614oh

0 1
 C                  1.20777400   -0.39676300   -0.14346700
 O                  1.19720800   -1.31903600   -0.94623400
 O                  0.26435900   -0.76900200    1.07236600
 O                  0.19176300    0.67494200   -0.75471500
 O                 -1.77798400   -0.72448400   -0.30416700
 C                 -2.88308000    0.02787200    0.24208000
 H                 -2.53710600    0.82117400    0.90891400
 H                 -3.42773800    0.43568100   -0.61770300
 H                 -3.51263100   -0.69137500    0.78027600
 H                 -0.92856000    0.03753100   -0.84574100
 H                 -1.00572800   -0.96084900    0.53084000
 C                  2.38290100    0.31640300    0.45064700
 H                  3.19669100   -0.40272500    0.63429800
 H                  2.77443900    1.07160900   -0.24621800
 H                  2.14772400    0.80319000    1.40513700
 C                 -0.03087000    1.89954300   -0.02112400
 H                  0.86089300    2.52133200   -0.15638800
 H                 -0.89550400    2.38095500   -0.48771500
 H                 -0.20295300    1.68374300    1.03799400
 H                  0.46735100   -1.68194900    1.34949300

 1 2 2.0 12 1.0
 2
 3 20 1.0
 4 16 1.0
 5 6 1.0
 6 7 1.0 8 1.0 9 1.0
 7
 8
 9
 10
 11
 12 13 1.0 14 1.0 15 1.0
 13
 14
 15
 16 17 1.0 18 1.0 19 1.0
 17
 18
 19
 20

