%nprocshared=8
%nprocl=1
# freq=noraman b3lyp/def2tzvp geom=connectivity

ts614oh

0 1
 C                  1.12155100   -0.54322900   -0.00169900
 O                  2.13465400   -0.60770000   -0.64328200
 O                 -0.09834300   -1.45265000   -0.60597100
 O                  0.27922200    0.93823500   -0.31447000
 O                 -1.92084200    0.08938500   -0.62416600
 C                 -2.83410000    0.03024300    0.47391200
 H                 -2.33619500   -0.29269300    1.39289500
 H                 -3.26907200    1.01755400    0.62903300
 H                 -3.62926800   -0.67378400    0.23198400
 H                 -1.00722100    0.69947500   -0.41313500
 H                 -1.19014000   -0.81901000   -0.65898400
 C                  1.00889500   -0.76055100    1.48735900
 H                  1.33783700   -1.77559200    1.71152600
 H                  1.67580400   -0.06365400    1.99370000
 H                 -0.00655800   -0.62161700    1.85187600
 C                  0.96533000    2.11958400    0.02987500
 H                  2.02234600    2.01863700   -0.23256400
 H                  0.55306000    2.95636400   -0.53974700
 H                  0.88411500    2.35411900    1.09930800
 H                  0.23771000   -1.61424000   -1.49946800

 1 2 2.0 12 1.0
 2
 3 20 1.0
 4 16 1.0
 5 6 1.0
 6 7 1.0 8 1.0 9 1.0
 7
 8
 9
 10
 11
 12 13 1.0 14 1.0 15 1.0
 13
 14
 15
 16 17 1.0 18 1.0 19 1.0
 17
 18
 19
 20

