%nprocshared=8
%nprocl=1
# opt=(calcfc,ts,noeigentest) freq=noraman b3lyp/def2tzvp geom=connectivity

ts623oh

0 1
 C                  0.80388900   -0.59573500    0.17986700
 C                  2.29391400   -0.75320900    0.07745800
 H                  2.57142900   -1.81122600    0.20464900
 H                  2.69429400   -0.40654400   -0.88176500
 H                  2.79996400   -0.19718900    0.88115000
 O                  0.06061500   -1.43141900   -0.70426700
 O                  0.39931800    0.77818800   -0.65801000
 O                  0.21166100   -0.45748500    1.29687500
 O                 -1.82747100    0.59746900    0.41767400
 C                 -2.73552400   -0.32636600   -0.23974100
 H                 -3.46676100   -0.64231900    0.51107800
 H                 -3.21768200    0.24395700   -1.03870900
 H                 -2.17361300   -1.18555300   -0.63455800
 H                 -1.17472400   -0.00431700    1.12753900
 H                 -0.84266700    0.83427100   -0.36662600
 C                  1.00252300    1.99296800   -0.15935800
 H                  0.94199100    2.01485300    0.93588000
 H                  2.04216700    1.99931500   -0.49853900
 H                  0.44604300    2.82325400   -0.60441600
 H                  0.43777100   -1.46848000   -1.60321400

 1 2 1.0 6 1.0 8 2.0
 2 3 1.0 4 1.0 5 1.0
 3
 4
 5
 6 20 1.0
 7 16 1.0
 8
 9 10 1.0
 10 11 1.0 12 1.0 13 1.0
 11
 12
 13
 14
 15
 16 17 1.0 18 1.0 19 1.0
 17
 18
 19
 20

