%nprocshared=8
%nprocl=1
# freq=noraman b3lyp/def2tzvp geom=connectivity

ts624oh freq

0 1
 C                  0.91679800   -0.63646800    0.00996100
 O                  2.11799500   -0.61910700   -0.64591500
 O                  0.03099900   -1.46761900   -0.44641600
 O                  0.21317400    0.92427700   -0.42900700
 O                 -1.91419700   -0.07645600   -0.62749200
 C                 -2.88908500   -0.06990900    0.41996000
 H                 -2.41665800   -0.10876200    1.41057800
 H                 -3.48725700    0.84215700    0.33663900
 H                 -3.54122300   -0.93929500    0.29751900
 H                 -1.02568400    0.66774800   -0.49660200
 H                 -1.13832600   -0.91863700   -0.53656300
 C                  1.13081200   -0.52082300    1.50680100
 H                  1.52280100   -1.48059400    1.86053100
 H                  1.85074200    0.26164500    1.75900700
 H                  0.18124600   -0.32591400    2.01106300
 C                  0.79026900    2.13710600    0.01833000
 H                  1.87632000    2.09635400   -0.12842000
 H                  0.38943600    2.96093400   -0.58447000
 H                  0.57579300    2.33510400    1.07914400
 H                  1.93626600   -0.93893400   -1.54808800

 1 2 1.0 3 1.5 12 1.0
 2 20 1.0
 3
 4 16 1.0
 5 6 1.0
 6 7 1.0 8 1.0 9 1.0
 7
 8
 9
 10
 11
 12 13 1.0 14 1.0 15 1.0
 13
 14
 15
 16 17 1.0 18 1.0 19 1.0
 17
 18
 19
 20

