%nprocshared=8
# opt=(calcfc,ts,noeigentest) freq=noraman b3lyp/def2tzvp geom=connectivity

ts631oh

0 1
 O                  0.05477200   -0.12892700   -1.10184100
 O                 -2.06665700   -0.73894600   -0.09635500
 H                 -1.24843900   -0.55305400   -0.91672300
 H                 -1.19431500   -0.73191800    0.79281300
 O                  0.04167800   -0.77291100    1.10819000
 H                  0.18535000   -0.12562400    1.82617300
 C                  0.91662000   -0.35544000   -0.16678400
 C                  1.92975400   -1.46364200   -0.25921200
 H                  1.50148300   -2.41914400    0.07657000
 H                  2.81594400   -1.25514600    0.35660900
 H                  2.25786800   -1.58494300   -1.30197400
 O                  1.54636400    0.80026100    0.36717300
 C                 -2.90656800    0.43395700    0.00204200
 H                 -3.50133600    0.31322400    0.91351100
 H                 -2.30251800    1.34539000    0.02891500
 H                 -3.55704600    0.42487600   -0.88138100
 C                  1.01104400    2.07970100   -0.03487700
 H                  1.82693900    2.77117700    0.20125400
 H                  0.78663900    2.07659000   -1.10947700
 H                  0.11507400    2.29530800    0.54937100

 1 7 1.5
 2 13 1.0
 3
 4
 5 6 1.0
 6
 7 8 1.0 12 1.0
 8 9 1.0 10 1.0 11 1.0
 9
 10
 11
 12 17 1.0
 13 14 1.0 15 1.0 16 1.0
 14
 15
 16
 17 18 1.0 19 1.0 20 1.0
 18
 19
 20

