%nprocshared=8
%nprocl=1
# opt=(calcfc,ts,noeigentest) freq=noraman b3lyp/def2tzvp geom=connectivity

ts632oh

0 1
 O                  0.05412800   -0.23955000   -1.12049200
 O                 -1.88650300    0.43423000    0.15929000
 H                 -1.13130100    0.33647400   -0.74455800
 H                 -1.12017700   -0.26603200    0.88915100
 O                  0.02475600   -0.72232800    1.12467300
 H                  0.35940200   -0.17504500    1.86820200
 C                  0.92424000   -0.41829500   -0.18687000
 C                  1.89619800   -1.56207000   -0.23510000
 H                  1.45139300   -2.47431300    0.18916500
 H                  2.81713900   -1.33755900    0.32153200
 H                  2.17144400   -1.77663600   -1.27919600
 O                  1.59136000    0.73698300    0.30091900
 C                 -3.09412000   -0.29683600   -0.14702400
 H                 -3.67576800   -0.33342500    0.78002400
 H                 -3.62730500    0.27744500   -0.91315300
 H                 -2.85496700   -1.30236800   -0.50813600
 C                  1.03364900    2.01490100   -0.07448900
 H                  1.77186400    2.72579600    0.31143000
 H                  0.95276700    2.07625600   -1.16620100
 H                  0.05577500    2.14852200    0.39752100

 1 7 1.5
 2 13 1.0
 3
 4
 5 6 1.0
 6
 7 8 1.0 12 1.0
 8 9 1.0 10 1.0 11 1.0
 9
 10
 11
 12 17 1.0
 13 14 1.0 15 1.0 16 1.0
 14
 15
 16
 17 18 1.0 19 1.0 20 1.0
 18
 19
 20

