%chk=C:\Users\214584429\Dropbox\Ester(COOH)\claclan.chk
# opt freq b3lyp/gen geom=connectivity pseudo=read gfinput

gen calculation ClAc-C H O=6-31+g(d)/Cl=LANL2DZ

0 1
 C                  1.28806200   -0.99416500   -0.00001000
 H                  1.07566600   -1.62373800    0.88231900
 H                  2.36877400   -0.77322200   -0.00069200
 H                  1.07462500   -1.62449500   -0.88155700
 C                  0.47813300    0.24401500    0.00000000
 O                  0.81930700    1.38314300   -0.00000200
 Cl                -1.27474700   -0.14957600    0.00000000

 1 2 1.0 3 1.0 4 1.0 5 1.0
 2
 3
 4
 5 6 2.0 7 1.0
 6
 7

C H O 0
6-31+G(d)
****
Cl 0
LANL2DZ
****

Cl 0
LANL2DZ





