%chk=C:\Users\LawalM\Desktop\RCOOH\HAc631g.chk
# opt freq b3lyp/6-31+g(d) geom=connectivity

Title Card Required

0 1
 O                  0.90117100    0.97670800   -0.00004200
 H                  0.42626300    1.83445600    0.00079200
 C                  0.09965600   -0.15055700   -0.00025300
 C                 -1.37380800    0.09114700   -0.00015800
 H                 -1.83761300   -0.35563600    0.89600000
 H                 -1.66584200    1.14594900   -0.03055000
 H                 -1.84633900   -0.40820300   -0.86352800
 O                  0.66988400   -1.20922100    0.00001100

 1 2 1.0 3 1.0
 2
 3 4 1.0 8 2.0
 4 5 1.0 6 1.0 7 1.0
 5
 6
 7
 8

