%nprocshared=8
%nprocl=1
# opt freq b3lyp/gen geom=connectivity gfinput pseudo=read

gen calculation-iac C H O=aug-ccpvtz/I=def2tzvp

0 1
 C                 -1.55617288   -1.73990438    0.15525304
 H                 -0.63396274   -2.25100763    0.33746698
 H                 -1.65830810   -1.55122650   -0.89301651
 H                 -2.37202357   -2.34606657    0.48970044
 C                 -1.56225263   -0.40343256    0.92037141
 O                 -2.20362887    0.57907061    0.46551473
 I                 -0.50022367   -0.22055830    2.72277300

 1 2 1.0 3 1.0 4 1.0 5 1.0
 2
 3
 4
 5 6 2.0 7 1.0
 6
 7

C H O 0
AUG-cc-pVTZ
****
I 0
Def2TZVP
****

I 0
Def2TZVP





