%chk=C:\Users\LawalM\Desktop\RCOI\iaclan.chk
# opt freq b3lyp/gen geom=connectivity gfinput pseudo=read

gen calculation-iac C H O=6-31+g(d)/I=lanl2dz

0 1
 C                  2.05215600    1.08722800   -0.00000100
 H                  1.77291200    1.69184800   -0.88194500
 H                  3.15178500    0.99105800   -0.00000300
 H                  1.77292300    1.69184400    0.88195000
 C                  1.39163800   -0.23572000    0.00000100
 O                  1.88483400   -1.30956300    0.00000000
 I                 -0.80073700    0.01873000    0.00000000

 1 2 1.0 3 1.0 4 1.0 5 1.0
 2
 3
 4
 5 6 2.0 7 1.0
 6
 7

C H O 0
6-31+G(d)
****
I 0
LANL2DZ
****

I 0
LANL2DZ









