%nprocshared=8
%nprocl=1
# opt=(calcfc,ts,noeigentest) freq=noraman b3lyp/genecp geom=connectivity
gfinput pseudo=read

gen calculation ts624cl-C H O=aug-ccpvtz/Cl=dgdzvp

0 1
 C                  0.88455800    0.11662800    0.41890700
 C                 -0.39856300    2.08642200   -0.60958600
 H                 -1.16611800    2.27150600   -1.36713400
 H                 -0.77957800    2.23626500    0.40601500
 H                  0.47887700    2.71441500   -0.79914300
 C                  2.12077100    0.93678700    0.59068300
 H                  2.88275200    0.36133100    1.14580900
 H                  2.57086800    1.21374600   -0.37438100
 H                  1.92441900    1.84967400    1.16978000
 O                  0.01831000    0.71086400   -0.79507200
 O                 -1.76363200   -0.86970300   -0.10176200
 C                 -3.04071100   -0.26804100    0.23385700
 H                 -3.56304000   -0.12891000   -0.71933100
 H                 -3.57600500   -0.99357700    0.85919300
 H                 -2.90072500    0.67793200    0.76430900
 H                 -1.12805400   -0.88882800    0.81810500
 H                 -1.03451400   -0.03214400   -0.71969800
 Cl                 1.32382800   -1.44390700   -0.50230100
 O                  0.04403600   -0.08688200    1.34088900

 1 6 1.0 18 1.0 19 2.0
 2 3 1.0 4 1.0 5 1.0 10 1.0
 3
 4
 5
 6 7 1.0 8 1.0 9 1.0
 7
 8
 9
 10
 11 12 1.0
 12 13 1.0 14 1.0 15 1.0
 13
 14
 15
 16
 17
 18
 19

C H O 0
AUG-cc-pVTZ
****
Cl 0
DGDZVP
****









