%nprocshared=8
%nprocl=1
# freq b3lyp/def2tzvp geom=connectivity

pc614cl freq-s9

0 1
 C                 -1.56061200   -0.51328700    0.53858600
 O                 -1.14070900   -0.86823500    1.57775200
 O                  0.10494200    1.68904700    0.45419500
 O                  2.11497100   -0.43625000    0.55934200
 C                  3.42251900   -0.63888500    0.03460700
 H                  3.49156600   -0.35146900   -1.02466300
 H                  4.09531700   -0.00360600    0.61615400
 H                  3.74384000   -1.68344800    0.14618000
 H                  0.88464500    1.11140300    0.60077200
 H                  1.47735100   -1.02439600    0.08905100
 C                 -2.66120100    0.40039200    0.11614000
 H                 -3.48250600   -0.21626500   -0.27009000
 H                 -2.99876200    0.97631800    0.98182500
 H                 -2.31602300    1.05702300   -0.68060000
 C                  0.38438400    2.54495700   -0.64435200
 H                 -0.50340900    3.16543100   -0.80383100
 H                  1.23438000    3.21265200   -0.44042000
 H                  0.58873100    1.97935700   -1.56579900
 Cl                -0.72701900   -1.29756200   -1.09698700

 1 2 2.0 11 1.0
 2
 3 9 1.0 15 1.0
 4 5 1.0 10 1.0
 5 6 1.0 7 1.0 8 1.0
 6
 7
 8
 9
 10
 11 12 1.0 13 1.0 14 1.0
 12
 13
 14
 15 16 1.0 17 1.0 18 1.0
 16
 17
 18
 19

