# freq b3lyp/def2tzvp geom=connectivity

freq-s10

0 1
 C                 -1.48842700   -0.42800600   -0.50493900
 C                 -2.30951000    0.67063500   -1.11192700
 H                 -3.36697200    0.38328600   -1.07429300
 H                 -2.17972300    1.59194300   -0.54039900
 H                 -1.99312600    0.81957800   -2.14584900
 O                  0.75439000    1.60556200   -0.35828600
 O                  2.24073400   -0.78930200   -0.67226700
 H                  1.44925000   -1.31980200   -0.86714600
 H                  1.36503200    0.84772700   -0.48079600
 Cl                -1.79073000   -0.63496800    1.27381200
 O                 -0.74636700   -1.17583400   -1.07077000
 C                  3.00065500   -1.43714100    0.35116800
 H                  3.32143300   -2.43760700    0.03386000
 H                  3.88745400   -0.82235500    0.52184000
 H                  2.43244800   -1.51680300    1.28737400
 C                  1.32321600    2.50293000    0.58494200
 H                  2.31202100    2.86264800    0.26386700
 H                  0.65223700    3.36380200    0.65907500
 H                  1.41669500    2.04813300    1.58279100

 1 2 1.0 10 1.0 11 2.0
 2 3 1.0 4 1.0 5 1.0
 3
 4
 5
 6 9 1.0 16 1.0
 7 8 1.0 12 1.0
 8
 9
 10
 11
 12 13 1.0 14 1.0 15 1.0
 13
 14
 15
 16 17 1.0 18 1.0 19 1.0
 17
 18
 19

