%nprocshared=8
%nprocl=1
# freq b3lyp/def2tzvp geom=connectivity

freq-s20

0 1
 C                  1.46421100    0.26577900    0.54832400
 C                 -2.34176100    2.21870600   -0.24185700
 H                 -3.35468100    1.98749500   -0.60247600
 H                 -2.35896800    2.25575700    0.85717700
 H                 -2.05710400    3.20464100   -0.62129600
 C                  1.84049500    1.69826100    0.32730000
 H                  2.87504000    1.78546400   -0.01259300
 H                  1.17591000    2.08623200   -0.45445300
 H                  1.67931100    2.25800800    1.25147300
 O                 -1.38337100    1.28710700   -0.72871800
 O                 -1.74844600   -1.20968800    0.57657900
 C                 -1.89308800   -2.44100400   -0.13594300
 H                 -2.80389300   -2.35280300   -0.73265600
 H                 -1.04270500   -2.62201600   -0.80538200
 H                 -2.00260500   -3.28687700    0.55512200
 H                 -0.91768800   -1.22335900    1.08277800
 H                 -1.57930100    0.40698500   -0.34414200
 O                  0.85184600   -0.19613900    1.46545900
 Cl                 2.01219500   -0.82354200   -0.80394400

 1 6 1.0 18 2.0 19 1.0
 2 3 1.0 4 1.0 5 1.0 10 1.0
 3
 4
 5
 6 7 1.0 8 1.0 9 1.0
 7
 8
 9
 10 17 1.0
 11 12 1.0 16 1.0
 12 13 1.0 14 1.0 15 1.0
 13
 14
 15
 16
 17
 18
 19

