%nprocshared=8
%nprocl=1
# freq b3lyp/def2tzvp geom=connectivity

freq s17

0 1
 O                  0.07055200   -1.11195100    0.41313100
 O                 -2.38692200   -0.04224100    0.35393000
 H                 -0.88486200   -0.84025600    0.51936800
 H                 -2.01570900    0.65058200   -0.23058900
 C                  0.88090900   -0.05274500    0.53690400
 C                  0.78513900    0.78260300    1.79133400
 H                 -0.24817100    1.08017300    1.97738700
 H                  1.41100600    1.67126600    1.70209400
 H                  1.13938500    0.16711800    2.62810800
 O                  2.14484600   -0.30279000    0.19784200
 C                 -3.48502900   -0.69270900   -0.29611400
 H                 -4.30698800    0.01251100   -0.46664300
 H                 -3.17842200   -1.13813300   -1.25093600
 H                 -3.82716600   -1.48152500    0.37732200
 C                  2.38445900   -1.19369000   -0.90929800
 H                  3.46364700   -1.17055700   -1.06108400
 H                  2.04942900   -2.20474200   -0.66797200
 H                  1.86303200   -0.81793300   -1.79416500
 Cl                 0.14789000    1.33333000   -0.95229800

 1 3 1.0 5 1.5
 2 4 1.0 11 1.0
 3
 4
 5 6 1.0 10 1.5
 6 7 1.0 8 1.0 9 1.0
 7
 8
 9
 10 15 1.0
 11 12 1.0 13 1.0 14 1.0
 12
 13
 14
 15 16 1.0 17 1.0 18 1.0
 16
 17
 18
 19

