%nprocshared=8
%nprocl=1
# opt=(calcfc,ts,noeigentest) freq=noraman b3lyp/def2tzvp geom=connectivity

Title Card Required

0 1
 C                 -0.14692600    0.71561500    0.30727800
 C                 -0.80267600    1.60482900   -0.65777300
 H                 -1.88360500    1.70497600   -0.43003200
 H                 -0.35205100    2.61204900   -0.64177600
 H                 -0.74664500    1.22665200   -1.69702300
 O                  0.30935500    0.73069800    1.39730400
 C                  2.21406800   -0.50667400   -0.10790300
 H                  2.83954900    0.38384600   -0.23290300
 H                  2.62734200   -1.36241000   -0.64797700
 H                  2.06289800   -0.73260800    0.95780900
 O                  0.94262000   -0.16894200   -0.72657600
 H                  0.29795700   -1.08815500   -0.77648900
 Cl                -1.32047300   -1.06594200    0.05017400

 1 2 1.0 6 2.0
 2 3 1.0 4 1.0 5 1.0
 3
 4
 5
 6
 7 8 1.0 9 1.0 10 1.0 11 1.0
 8
 9
 10
 11
 12
 13

