%nprocshared=8
%nprocl=1
# opt=(calcfc,ts,noeigentest) freq=noraman b3lyp/def2tzvp geom=connectivity

Title Card Required

0 1
 C                  0.17948200    0.82530200   -0.20201700
 C                 -0.04884000    1.26936400    1.17572400
 H                  0.89266000    1.68672900    1.59351900
 H                 -0.82029500    2.05615100    1.22543600
 H                 -0.33274000    0.45810600    1.87026400
 O                  0.45560900    1.25753000   -1.26104000
 C                 -2.14229300   -0.67714100    0.17276900
 H                 -2.73249200    0.24432000    0.12778600
 H                 -1.86824200   -0.93481100    1.20000900
 H                 -2.68677200   -1.50036900   -0.30739900
 O                 -0.96685900   -0.43671400   -0.63394100
 H                 -0.23349700   -1.27775000   -0.50227200
 Cl                 1.40831100   -0.92965000    0.18080300

 1 2 1.0 6 2.0
 2 3 1.0 4 1.0 5 1.0
 3
 4
 5
 6
 7 8 1.0 9 1.0 10 1.0 11 1.0
 8
 9
 10
 11
 12
 13

