%nprocshared=8
%nprocl=1
# freq=readisotopes b3lyp/def2tzvp geom=connectivity

ts611cl 373

0 1
 C                  1.50629200    0.08012100    0.33791600
 C                  0.19125200    1.99308900   -0.88001000
 H                 -0.58071800    2.75048300   -0.75762300
 H                  1.16025100    2.46434800   -1.00999500
 H                 -0.02428700    1.33437300   -1.72053400
 C                  1.40431000   -0.62123400    1.64486300
 H                  1.88242200    0.01554900    2.39493400
 H                  0.37733500   -0.82362700    1.92592300
 H                  1.95031400   -1.55750600    1.55705200
 O                  2.40074100    0.41279100   -0.33266400
 O                  0.23833100    1.22337600    0.34097400
 O                 -1.87537200   -0.15317800    0.64834000
 C                 -3.19441600    0.15747000    0.19932700
 H                 -3.20784500    0.40503900   -0.86529600
 H                 -3.86294300   -0.68675000    0.37811700
 H                 -3.54768500    1.01303300    0.77315600
 H                 -1.46558600   -0.86345500    0.08109200
 H                 -0.66472100    0.74136700    0.48425800
 Cl                 0.14289700   -1.54784900   -0.95922700

 1 6 1.0 10 2.0
 2 3 1.0 4 1.0 5 1.0 11 1.0
 3
 4
 5
 6 7 1.0 8 1.0 9 1.0
 7
 8
 9
 10
 11
 12 13 1.0 17 1.0
 13 14 1.0 15 1.0 16 1.0
 14
 15
 16
 17
 18
 19

373.15 1.0
12
12
1
1
1
12
1
1
1
16
16
16
12
1
1
1
1
1
35.5



