%nprocshared=8
%nprocl=1
# freq b3lyp/def2tzvp geom=connectivity

freq

0 1
 C                  1.32476600   -0.13020300    0.67462800
 O                  1.13299200    0.13224200    1.80525800
 O                  0.21012000   -1.27723000    0.14916100
 O                 -1.90112000    0.03313800    0.67804700
 C                 -3.19983900   -0.15100300    0.10355500
 H                 -3.15455500   -0.17617000   -0.99258100
 H                 -3.58852300   -1.10059600    0.47900500
 H                 -3.86654100    0.65797300    0.42072700
 H                 -0.70833700   -0.85557000    0.42306900
 H                 -1.46778500    0.84736900    0.30157600
 C                  2.56030600   -0.21199700   -0.15783400
 H                  3.15874600    0.67084500    0.07580300
 H                  3.11109900   -1.11441900    0.14024200
 H                  2.35118400   -0.22416800   -1.22421500
 C                  0.14357100   -1.67869100   -1.24475300
 H                  1.03245500   -2.27147400   -1.46144400
 H                 -0.74573300   -2.30408800   -1.35243900
 H                  0.07933300   -0.79045700   -1.87840200
 Cl                 0.19352300    1.68158300   -0.72027300

 1 2 2.0 11 1.0
 2
 3 15 1.0
 4 5 1.0 10 1.0
 5 6 1.0 7 1.0 8 1.0
 6
 7
 8
 9
 10
 11 12 1.0 13 1.0 14 1.0
 12
 13
 14
 15 16 1.0 17 1.0 18 1.0
 16
 17
 18
 19

