%nprocshared=8
%nprocl=1
# opt=(calcfc,ts,noeigentest) freq=noraman b3lyp/def2tzvp geom=connectivity

Title Card Required

0 1
 C                  0.85964700   -0.45693900   -0.63502300
 C                  0.89630800    2.03541900    0.38385300
 H                  0.25571700    2.92420400    0.37473800
 H                  0.96637800    1.60869300    1.39148600
 H                  1.88445500    2.26866300   -0.02444100
 C                  2.33604200   -0.43902600   -0.55476900
 H                  2.71585200   -1.47908900   -0.54679900
 H                  2.77097400    0.07487600   -1.42736200
 H                  2.73191100    0.03191400    0.35883700
 O                  0.07871000   -0.95547100   -1.40186200
 O                  0.29033100    1.09245100   -0.53948400
 O                 -2.01065100    0.55100800    0.40146700
 C                 -2.77569400   -0.24122700   -0.55304300
 H                 -3.19596500    0.49484600   -1.24624000
 H                 -2.10685600   -0.94620500   -1.07246400
 H                 -3.56480800   -0.76438100   -0.00576700
 H                 -1.56555600   -0.09857500    1.07445600
 H                 -0.83620100    0.96421100   -0.24090300
 Cl                 0.30465700   -0.93955400    1.28455200

 1 6 1.0 10 2.0
 2 3 1.0 4 1.0 5 1.0 11 1.0
 3
 4
 5
 6 7 1.0 8 1.0 9 1.0
 7
 8
 9
 10
 11
 12 13 1.0
 13 14 1.0 15 1.0 16 1.0
 14
 15
 16
 17
 18
 19

