%nprocshared=8
%nprocl=1
# freq=noraman b3lyp/def2tzvp geom=connectivity

ts614cl freqs23

0 1
 C                  1.16628400    0.14251000   -0.59324300
 O                  0.94161300   -0.21519300   -1.70579600
 O                  0.33735800    1.23755200   -0.18392100
 O                 -1.79276300    0.05298000   -0.81441700
 C                 -2.90454900    0.30188300    0.09746900
 H                 -2.58269600    0.11329600    1.11827700
 H                 -3.21688600    1.33256200   -0.04578000
 H                 -3.70222300   -0.37636000   -0.18957400
 H                 -1.00504000    0.70686600   -0.68790200
 H                 -1.28862000   -0.83760700   -0.52540300
 C                  2.45175500   -0.00804900    0.15341300
 H                  2.69222600   -1.06430500    0.21234900
 H                  3.20604600    0.50200600   -0.45384600
 H                  2.45411600    0.41067000    1.15329500
 C                  0.37315000    1.87859100    1.10324100
 H                  0.79624500    2.87979300    0.99841300
 H                 -0.65306700    1.95322600    1.46197400
 H                  0.92551000    1.30088700    1.83387800
 Cl                -0.00206500   -1.73019700    0.71718300

 1 2 2.0 3 1.0 11 1.0
 2
 3 15 1.0
 4 5 1.0
 5 6 1.0 7 1.0 8 1.0
 6
 7
 8
 9
 10
 11 12 1.0 13 1.0 14 1.0
 12
 13
 14
 15 16 1.0 17 1.0 18 1.0
 16
 17
 18
 19

