%nprocshared=8
%nprocl=1
# opt=(calcfc,ts,noeigentest) freq=noraman b3lyp/def2tzvp geom=connectivity

Title Card Required

0 1
 C                  1.40702800   -0.15532300    0.28558600
 C                  0.24417200    2.12365700   -0.41500500
 H                 -0.42841900    2.90334500   -0.05152200
 H                  1.28420100    2.47897200   -0.45542600
 H                 -0.05475900    1.72011100   -1.38914900
 C                  1.18951800   -1.02245900    1.46133300
 H                  1.74695300   -0.64062400    2.33391400
 H                  0.12844800   -1.10885900    1.75908800
 H                  1.53913800   -2.05112400    1.25119700
 O                  2.32402700    0.40214000   -0.22535600
 O                  0.22758600    1.06593400    0.58698300
 O                 -1.86137500   -0.42078000    0.56106400
 C                 -3.10714700    0.11163400    0.06651000
 H                 -2.94970600    0.65122600   -0.87227800
 H                 -3.80856100   -0.71927800   -0.07273400
 H                 -3.46094500    0.78069200    0.85972900
 H                 -1.41888500   -1.01851900   -0.17667600
 H                 -0.78367800    0.60752400    0.58704700
 Cl                 0.25193500   -1.07805100   -1.14972200

 1 6 1.0 10 2.0
 2 3 1.0 4 1.0 5 1.0 11 1.0
 3
 4
 5
 6 7 1.0 8 1.0 9 1.0
 7
 8
 9
 10
 11
 12 13 1.0
 13 14 1.0 15 1.0 16 1.0
 14
 15
 16
 17
 18
 19

