%nprocshared=8
%nprocl=1
# freq=noraman b3lyp/def2tzvp geom=connectivity

ts612cl freq19

0 1
 C                  1.41995100   -0.11107500    0.27780700
 C                  0.65012700    2.28536900   -0.61585500
 H                 -0.19238100    2.63665200   -1.20872800
 H                  0.99280500    3.07634300    0.05200000
 H                  1.45969900    1.98268400   -1.28068100
 C                  1.28075200   -0.56719800    1.69210400
 H                  1.87735600   -1.46881500    1.81321100
 H                  1.66274700    0.22933900    2.33576000
 H                  0.24141700   -0.79307000    1.90984000
 O                  2.32026700    0.07478600   -0.44042900
 O                  0.22978000    1.16472100    0.16453600
 O                 -2.04639700    0.40042900   -0.43680400
 C                 -2.90924100    0.20546900    0.68654600
 H                 -2.98654100    1.15366200    1.21705300
 H                 -3.90154700   -0.09453800    0.34764000
 H                 -2.50603500   -0.55687700    1.35965100
 H                 -1.68271900   -0.49078900   -0.74710300
 H                 -0.74656100    0.83688600   -0.09340300
 Cl                -0.05276300   -1.79449100   -0.72042700

 1 6 1.0 10 2.0
 2 3 1.0 4 1.0 5 1.0 11 1.0
 3
 4
 5
 6 7 1.0 8 1.0 9 1.0
 7
 8
 9
 10
 11
 12 13 1.0 17 1.0
 13 14 1.0 15 1.0 16 1.0
 14
 15
 16
 17
 18
 19

