%nprocshared=8
%nprocl=1
# opt=(calcfc,ts,noeigentest) freq=noraman b3lyp/def2tzvp geom=connectivity

Title Card Required

0 1
 C                  0.88392300   -0.18609000    0.39182500
 C                  0.81246500    2.18077700   -0.56585400
 H                  0.20723400    2.77891900   -1.25470600
 H                  0.67688100    2.50199100    0.47302600
 H                  1.86624300    2.20470100   -0.86003600
 C                  2.37321600   -0.25971500    0.33105400
 H                  2.72774800   -1.18997000    0.80999700
 H                  2.74574100   -0.27305500   -0.70450500
 H                  2.84065400    0.57698600    0.86926300
 O                  0.35361500    0.81167000   -0.73226000
 O                 -1.86565200    0.77732900    0.34486900
 C                 -2.86816400   -0.19566400   -0.06041600
 H                 -3.32843400    0.21766200   -0.96418800
 H                 -2.40895100   -1.17232900   -0.25743700
 H                 -3.59543200   -0.25655400    0.75656700
 H                 -1.25186400    0.35271100    1.16362900
 H                 -0.91240000    0.81455300   -0.49479300
 O                  0.22626900    0.08477300    1.42815000
 Cl                 0.20647500   -1.71656700   -0.49662000

 1 6 1.0 18 2.0
 2 3 1.0 4 1.0 5 1.0 10 1.0
 3
 4
 5
 6 7 1.0 8 1.0 9 1.0
 7
 8
 9
 10
 11 12 1.0
 12 13 1.0 14 1.0 15 1.0
 13
 14
 15
 16
 17
 18
 19

