%nprocshared=8
%nprocl=1
# freq=noraman b3lyp/def2tzvp geom=connectivity

freq ts621cl

0 1
 C                 -0.70753000   -0.50076500   -0.39917500
 C                 -1.88800300   -0.48595900   -1.35021800
 H                 -2.51234900   -1.35829900   -1.14026100
 H                 -2.49361000    0.41682600   -1.24541800
 H                 -1.49955800   -0.55759100   -2.37168900
 O                  0.11089200    0.83910100   -0.69310900
 O                  0.09858400   -1.46778800   -0.42162400
 O                  2.22170600   -0.27907800   -0.55189400
 C                  2.97166700   -0.16556900    0.68186400
 H                  3.54469200    0.76204400    0.63492500
 H                  2.29536800   -0.15922500    1.54262100
 H                  3.65129500   -1.01738000    0.74204300
 H                  1.49804300   -1.05167600   -0.48818300
 H                  1.35597500    0.47086700   -0.63135500
 C                 -0.24895300    2.12772900   -0.17384600
 H                  0.43831600    2.84505900   -0.63334200
 H                 -1.27286600    2.37356300   -0.46728800
 H                 -0.16531100    2.15266600    0.91483700
 Cl                -1.47367900   -0.20396200    1.40731600

 1 2 1.0 7 2.0
 2 3 1.0 4 1.0 5 1.0
 3
 4
 5
 6 15 1.0
 7
 8 9 1.0
 9 10 1.0 11 1.0 12 1.0
 10
 11
 12
 13
 14
 15 16 1.0 17 1.0 18 1.0
 16
 17
 18
 19

