%nprocshared=8
%nprocl=1
# freq=noraman b3lyp/def2tzvp geom=connectivity

freqs80

0 1
 O                 -0.15352800    1.22994300   -0.15450000
 O                  2.16583100    0.37927400    0.30380000
 H                  0.84482000    1.04585100    0.06129200
 H                  1.77480600   -0.52655300    0.15805900
 C                 -0.95103300    0.44091300    0.48433700
 C                 -0.82134900    0.19224800    1.94989700
 H                  0.22089500    0.07044300    2.22677700
 H                 -1.38686200   -0.68940000    2.23233800
 H                 -1.22789600    1.07057700    2.46428800
 O                 -2.14812200    0.27812900    0.00493700
 C                  3.26165200    0.59018600   -0.58893900
 H                  4.06477100   -0.11650700   -0.37284000
 H                  2.95377800    0.47673900   -1.63128200
 H                  3.62912300    1.60268300   -0.42907400
 C                 -2.34845500    0.46866800   -1.41423500
 H                 -3.36939500    0.15037900   -1.59902000
 H                 -2.21407000    1.51548000   -1.67794500
 H                 -1.63889600   -0.16182800   -1.94750000
 Cl                 0.15238700   -1.74639600   -0.19443200

 1 5 1.5
 2 4 1.0 11 1.0
 3
 4
 5 6 1.0 10 1.5
 6 7 1.0 8 1.0 9 1.0
 7
 8
 9
 10 15 1.0
 11 12 1.0 13 1.0 14 1.0
 12
 13
 14
 15 16 1.0 17 1.0 18 1.0
 16
 17
 18
 19

