%nprocshared=8
%nprocl=1
# opt=(calcfc,ts,noeigentest) freq=noraman b3lyp/def2tzvp geom=connectivity

Title Card Required

0 1
 O                 -0.07869400    0.07331300    1.31526200
 O                  1.94127200    0.38463200   -0.08375000
 H                  0.91610600    0.44833700    0.88430100
 H                  1.42882700   -0.34747200   -0.70707500
 C                 -1.06936100   -0.07444700    0.45777300
 C                 -2.19220500   -0.97900300    0.83754300
 H                 -1.81745300   -1.98247000    1.10500000
 H                 -2.90601200   -1.10540000    0.00507000
 H                 -2.74433400   -0.58260000    1.70486700
 O                 -1.52282000    1.02686400   -0.21730700
 C                  3.12549200   -0.21560400    0.48584600
 H                  3.82413200   -0.42823700   -0.33079500
 H                  3.53805100    0.54580800    1.15761400
 H                  2.86709600   -1.12856900    1.03227900
 C                 -0.58122600    2.08086500   -0.54302500
 H                 -1.20651100    2.77442700   -1.11997000
 H                 -0.21111700    2.54303400    0.37652700
 H                  0.23306800    1.68137200   -1.16175100
 Cl                -0.13741800   -1.12750400   -1.08756000

 1 5 1.5
 2 11 1.0
 3
 4
 5 6 1.0 10 1.0
 6 7 1.0 8 1.0 9 1.0
 7
 8
 9
 10 15 1.0
 11 12 1.0 13 1.0 14 1.0
 12
 13
 14
 15 16 1.0 17 1.0 18 1.0
 16
 17
 18
 19

