%nprocshared=8
%nprocl=1
# freq b3lyp/def2tzvp scrf=(cpcm,solvent=methanol) geom=connectivity

Title Card Required

0 1
 C                  1.37312300   -0.04602500   -0.00000200
 H                  1.70559200    0.51086800   -0.88261400
 H                  1.80989100   -1.04547500   -0.00005500
 H                  1.70559000    0.51076800    0.88267500
 C                 -0.12206800   -0.14349900   -0.00000400
 O                 -0.82151800   -1.10628700   -0.00002000
 F                 -0.68391700    1.11236400    0.00002100

 1 2 1.0 3 1.0 4 1.0 5 1.0
 2
 3
 4
 5 6 2.0 7 1.0
 6
 7

