%nprocshared=8
%nprocl=1
# freq=readisotopes b3lyp/def2tzvp scrf=(cpcm,solvent=methanol)
geom=connectivity

hac 373

0 1
 O                 -0.86398000   -1.00517600   -0.00011900
 H                 -0.30258700   -1.80107000    0.00077300
 C                 -0.12129700    0.13090900    0.00005300
 C                  1.37815700   -0.04481600   -0.00004000
 H                  1.69648500   -0.60600200    0.88590400
 H                  1.69587700   -0.60848500   -0.88460800
 H                  1.86203200    0.93241600   -0.00147900
 O                 -0.69764200    1.20099900    0.00003600

 1 2 1.0 3 1.0
 2
 3 4 1.0 8 2.0
 4 5 1.0 6 1.0 7 1.0
 5
 6
 7
 8

373.15 1.0
16
1
12
12
1
1
1
16




