%nprocshared=8
%nprocl=1
# freq b3lyp/def2tzvp scrf=(cpcm,solvent=methanol) geom=connectivity

iac Def2TZVP sol=meoh

0 1
 C                  2.13418400    1.07989200    0.00012400
 H                  1.84883900    1.66029500   -0.88306600
 H                  3.21129400    0.88785800    0.00077900
 H                  1.84770000    1.65988500    0.88322100
 C                  1.39496600   -0.23387000   -0.00072900
 O                  1.86496000   -1.32603900    0.00022900
 I                 -0.81136600    0.02498400    0.00001600

 1 2 1.0 3 1.0 4 1.0 5 1.0
 2
 3
 4
 5 6 2.0 7 1.0
 6
 7






