%nprocshared=8
%nprocl=1
# freq=readisotopes b3lyp/def2tzvp scrf=(cpcm,solvent=methanol)
geom=connectivity

ts612cl 373.15k

0 1
 C                  1.37712200   -0.10863700    0.51773100
 C                  0.73357100    2.03604100   -0.82510800
 H                  0.02400100    2.86391700   -0.86013400
 H                  1.74401700    2.39755700   -0.64363600
 H                  0.69231800    1.43245800   -1.73453600
 C                  0.90721900   -0.79369200    1.76098700
 H                  1.32659300   -1.80149600    1.76271000
 H                  1.29525900   -0.22972700    2.61912100
 H                 -0.17783600   -0.85740300    1.81445500
 O                  2.45319100    0.07681200    0.06956800
 O                  0.35749300    1.21294100    0.31433600
 O                 -2.01511400    0.43135600   -0.25950500
 C                 -3.10136600    0.08879900    0.60791200
 H                 -3.37316600    0.99144900    1.16003300
 H                 -3.96245600   -0.24475400    0.01874600
 H                 -2.81695000   -0.70131400    1.31428500
 H                 -1.64405800   -0.37931000   -0.70372800
 H                 -0.62394700    0.91048900    0.19215100
 Cl                 0.09719900   -1.49916400   -1.07669300

 1 6 1.0 10 2.0
 2 3 1.0 4 1.0 5 1.0 11 1.0
 3
 4
 5
 6 7 1.0 8 1.0 9 1.0
 7
 8
 9
 10
 11
 12 13 1.0 17 1.0
 13 14 1.0 15 1.0 16 1.0
 14
 15
 16
 17
 18
 19

373.15 1.0
12
12
1
1
1
12
1
1
1
16
16
16
12
1
1
1
1
1
35.5




