%nprocshared=8
%nprocl=1
# freq=readisotopes b3lyp/def2tzvp scrf=(cpcm,solvent=methanol)
geom=connectivity

ts612Br def2tzvp sol=meoh 373.15k

0 1
 C                 -1.21168700   -0.81301900    0.58639300
 O                 -2.13758300   -1.27790100    0.02972900
 O                  0.36218200   -1.62348800   -0.09158200
 O                  2.31701700    0.16336900   -0.31314500
 C                  3.42393400    0.27847200    0.59845000
 H                  3.96633200   -0.66747600    0.55166800
 H                  4.08729200    1.09328300    0.29025000
 H                  3.07782800    0.45053600    1.62370500
 H                  1.12183000   -0.96215300   -0.11915000
 H                  1.76716800    0.97179900   -0.28810600
 C                 -0.81971500   -0.64243700    2.01627000
 H                 -1.56922900   -0.00210200    2.48947800
 H                 -0.83553100   -1.63515800    2.48085600
 H                  0.16426300   -0.19192400    2.11969400
 C                  0.17268000   -2.17639200   -1.40983900
 H                  1.08586800   -2.70581300   -1.69265600
 H                 -0.65904200   -2.87839000   -1.35243200
 H                 -0.04996600   -1.38379500   -2.13064600
 Br                -0.73945800    1.42673200   -0.33486600

 1 2 2.0 11 1.0
 2
 3 9 1.0 15 1.0
 4 5 1.0 10 1.0
 5 6 1.0 7 1.0 8 1.0
 6
 7
 8
 9
 10
 11 12 1.0 13 1.0 14 1.0
 12
 13
 14
 15 16 1.0 17 1.0 18 1.0
 16
 17
 18
 19

373.15 1.0
12
16
16
16
12
1
1
1
1
1
12
1
1
1
12
1
1
1
79






