%nprocshared=8
%nprocl=1
# opt freq b3lyp/def2tzvp geom=connectivity

Title Card Required

0 1
 C                  0.62800700   -0.30225100    0.21028200
 C                  1.65920400   -0.38277500   -0.86551800
 H                  2.63526200   -0.29982000   -0.37538100
 H                  1.58653900   -1.35395000   -1.36344400
 H                  1.55094100    0.42542400   -1.58634800
 O                  0.29747800   -1.05121600    1.06109300
 C                 -2.14409100   -0.25467600   -0.21531800
 H                 -2.37943000   -1.21469200   -0.67717100
 H                 -2.94395400    0.46138700   -0.42619400
 H                 -2.02177900   -0.38159000    0.86551400
 O                 -0.92928600    0.21300000   -0.81284400
 H                 -0.72726400    1.11273900   -0.47173300
 F                  0.56301600    1.36554700    0.55460600

 1 2 1.0 6 2.0
 2 3 1.0 4 1.0 5 1.0
 3
 4
 5
 6
 7 8 1.0 9 1.0 10 1.0 11 1.0
 8
 9
 10
 11 12 1.0
 12
 13

