%nprocshared=8
%nprocl=1
# opt b3lyp/def2tzvp geom=connectivity optcyc=50

Title Card Required

0 1
 C                  1.23751900   -0.46732400   -0.16227300
 O                  1.18987500   -1.29486600   -1.00227100
 O                  0.21469900    0.89570500   -0.76288600
 O                 -1.83031900   -0.53722400   -0.32263300
 C                 -3.05400800    0.00406000    0.16048600
 H                 -2.88876900    0.75810200    0.94313600
 H                 -3.56169400    0.47104200   -0.68776700
 H                 -3.69554500   -0.79021800    0.56074100
 H                 -0.68481400    0.40601900   -0.76743900
 H                 -1.26784100   -0.87341000    0.42374600
 C                  2.37997500    0.16929600    0.55852200
 H                  2.95382400   -0.64701100    1.00669600
 H                  3.01390600    0.69662500   -0.16200700
 H                  2.05281500    0.83947500    1.35010400
 C                  0.09355500    2.07575400    0.04090800
 H                  1.03270400    2.62662400   -0.03356800
 H                 -0.71343200    2.69315100   -0.36594400
 H                 -0.11739300    1.81447100    1.08268400
 F                  0.14891100   -0.76063600    1.20243400

 1 2 2.0 11 1.0
 2
 3 15 1.0
 4 5 1.0 10 1.0
 5 6 1.0 7 1.0 8 1.0
 6
 7
 8
 9
 10
 11 12 1.0 13 1.0 14 1.0
 12
 13
 14
 15 16 1.0 17 1.0 18 1.0
 16
 17
 18
 19

