# freq b3lyp/def2tzvp geom=connectivity

freq-s12

0 1
 C                  1.42442900   -0.88347700   -0.07439700
 C                  2.67177300   -0.05940300   -0.05769600
 H                  3.47415400   -0.65225100    0.39951000
 H                  2.95466800    0.19816500   -1.07933600
 H                  2.51882000    0.84218800    0.53626600
 O                  0.94483300   -1.54954500   -0.93451800
 O                 -0.12679700    1.51619500   -0.56357800
 O                 -2.10826200   -0.26041300    0.55834900
 C                 -2.79661300   -1.12569000   -0.35395200
 H                 -3.49592800   -0.49714900   -0.91004900
 H                 -2.10111600   -1.60257000   -1.05544400
 H                 -3.36409300   -1.89641200    0.18346900
 H                 -1.47422000   -0.78953600    1.07145200
 H                 -0.88444200    0.95293300   -0.30547100
 C                 -0.27214200    2.78788000    0.05575800
 H                 -0.31260700    2.70946200    1.15222300
 H                  0.60271700    3.38269900   -0.22313600
 H                 -1.17349600    3.31188000   -0.29346600
 F                  0.82362900   -0.88057500    1.18040900

 1 2 1.0 6 2.0 19 1.0
 2 3 1.0 4 1.0 5 1.0
 3
 4
 5
 6
 7 14 1.0 15 1.0
 8 9 1.0 13 1.0
 9 10 1.0 11 1.0 12 1.0
 10
 11
 12
 13
 14
 15 16 1.0 17 1.0 18 1.0
 16
 17
 18
 19

