%nprocshared=8
%nprocl=1
# opt b3lyp/def2tzvp geom=connectivity optcyc=30

Title Card Required

0 1
 C                  1.18845900   -0.55249900   -0.01720900
 O                  2.20248200   -0.15055900   -0.47899500
 O                  0.30847900    0.87812900    0.70527200
 O                 -1.96497500    0.45002400   -0.31144000
 C                 -3.02454800   -0.20898600    0.37502400
 H                 -2.67441600   -1.11283700    0.89194100
 H                 -3.42217100    0.49340500    1.11178900
 H                 -3.82376100   -0.48233000   -0.32393900
 H                 -0.66691300    0.77533100    0.44103900
 H                 -1.45927800   -0.18682200   -0.87615200
 C                  0.91188700   -1.60422600    1.01176300
 H                  1.18577800   -2.56628500    0.56828600
 H                  1.53387800   -1.41756600    1.89186400
 H                 -0.13893800   -1.63238400    1.29812300
 C                  0.79027000    2.11669300    0.15369300
 H                  0.17367000    2.92372100    0.55868800
 H                  1.82594000    2.24003000    0.46925400
 H                  0.73486000    2.10256500   -0.93859000
 F                 -0.01820600   -0.89417200   -1.16036200

 1 2 2.0 11 1.0
 2
 3 9 1.0 15 1.0
 4 5 1.0 10 1.0
 5 6 1.0 7 1.0 8 1.0
 6
 7
 8
 9
 10
 11 12 1.0 13 1.0 14 1.0
 12
 13
 14
 15 16 1.0 17 1.0 18 1.0
 16
 17
 18
 19

