%nprocshared=8
%nprocl=1
# freq b3lyp/def2tzvp geom=connectivity

freq s40

0 1
 C                 -1.76788500   -0.30481000    0.23352300
 C                 -2.37707500    0.97531800   -0.21209700
 H                 -3.09534700    0.79602000   -1.01159600
 H                 -2.84992800    1.46996000    0.63189500
 H                 -1.56802200    1.59653200   -0.60474800
 O                 -1.57641700   -0.73671700    1.31389100
 O                  0.85887200    1.59535400   -0.44434500
 O                  1.60788600   -1.14550400   -0.68637700
 C                  2.11182200   -1.88514400    0.42577400
 H                  3.07448000   -1.44935600    0.68830400
 H                  1.44453000   -1.82239800    1.28938100
 H                  2.26502800   -2.93620200    0.16441200
 H                  0.71910800   -1.46081800   -0.89248100
 H                  1.24709400    0.70824600   -0.54883300
 C                  1.71727500    2.38278600    0.36276000
 H                  2.70633200    2.50897300   -0.09230700
 H                  1.26262200    3.36873300    0.46330400
 H                  1.84450700    1.96055700    1.36646200
 F                 -1.36421700   -1.05046800   -0.86432200

 1 2 1.0 6 2.0 19 1.0
 2 3 1.0 4 1.0 5 1.0
 3
 4
 5
 6
 7 14 1.0 15 1.0
 8 9 1.0 13 1.0
 9 10 1.0 11 1.0 12 1.0
 10
 11
 12
 13
 14
 15 16 1.0 17 1.0 18 1.0
 16
 17
 18
 19

