%nprocshared=8
%nprocl=1
# freq b3lyp/def2tzvp geom=connectivity

freq-s45

0 1
 C                 -2.23551500   -0.04236900   -0.03143100
 O                 -3.01367100    0.24329900   -0.88013400
 O                  1.32953200   -1.47843300   -0.16326200
 O                  1.28423600    1.34564200   -0.40122600
 C                  2.13407200    2.30955700    0.22327600
 H                  2.09589500    2.23522000    1.31837800
 H                  3.15163600    2.09684300   -0.11252700
 H                  1.86785300    3.32942000   -0.08248200
 H                  1.41788400   -0.50778400   -0.27223500
 H                  0.36467400    1.49460200   -0.12551200
 C                 -1.88952400   -1.34854000    0.59767700
 H                 -1.98235100   -1.26986500    1.68620000
 H                 -2.55577900   -2.12272900    0.21430500
 H                 -0.84303200   -1.59753700    0.37223400
 C                  2.63192200   -2.04433600   -0.10804200
 H                  2.51179200   -3.12746200   -0.01344700
 H                  3.20677400   -1.83753900   -1.02268700
 H                  3.20203000   -1.68077700    0.76029000
 F                 -1.45376500    0.98418600    0.52728600

 1 2 2.0 11 1.0 19 1.0
 2
 3 9 1.0 15 1.0
 4 5 1.0 10 1.0
 5 6 1.0 7 1.0 8 1.0
 6
 7
 8
 9
 10
 11 12 1.0 13 1.0 14 1.0
 12
 13
 14
 15 16 1.0 17 1.0 18 1.0
 16
 17
 18
 19

