%nprocshared=8
%nprocl=1
# opt freq b3lyp/def2tzvp geom=connectivity

Title Card Required

0 1
 C                 -0.87275700   -0.64322200    0.00394000
 C                 -1.96276500   -0.81060200   -1.01914200
 H                 -2.53156300   -1.69982900   -0.72634800
 H                 -2.64749700    0.03907200   -1.06085900
 H                 -1.51728200   -0.98516300   -2.00063700
 O                 -0.12388400    0.87732000   -0.50821300
 O                  0.05250600   -1.44706800    0.11422900
 O                  1.97492700    0.09089200    0.47417000
 H                  1.43095400   -0.73965400    0.55187000
 H                  0.82423300    0.77144600   -0.11359100
 C                 -0.74476000    2.10613100   -0.13498400
 H                 -0.19592900    2.92438200   -0.61191400
 H                 -1.76815300    2.09238700   -0.51431100
 H                 -0.75667800    2.23284400    0.95083800
 C                  3.06507400   -0.12794500   -0.41695200
 H                  2.71989000   -0.49556300   -1.39247800
 H                  3.57760100    0.82836100   -0.54850100
 H                  3.76676000   -0.85032800    0.01510800
 F                 -1.43124600   -0.14626000    1.21142700

 1 2 1.0 7 2.0 19 1.0
 2 3 1.0 4 1.0 5 1.0
 3
 4
 5
 6 11 1.0
 7
 8 9 1.0 15 1.0
 9
 10
 11 12 1.0 13 1.0 14 1.0
 12
 13
 14
 15 16 1.0 17 1.0 18 1.0
 16
 17
 18
 19

