%nprocshared=8
%nprocl=1
# opt=(calcfc,ts,noeigentest) freq=noraman b3lyp/def2tzvp geom=connectivity

Title Card Required

0 1
 C                  0.68717200    0.12746000   -0.24782700
 O                  1.37357800   -0.47976400   -1.00054800
 O                 -0.81967500   -0.57316600   -0.38564600
 C                  0.62014600    1.50410800    0.27866600
 H                  0.23847200    2.20182000   -0.48400000
 H                  0.00257700    1.61493100    1.18456000
 H                  1.63659600    1.84325800    0.56118100
 C                 -2.01608000    0.18784600   -0.10996200
 H                 -2.09288100    0.94650700   -0.89614500
 H                 -2.84526800   -0.52679500   -0.19229500
 H                 -1.98650300    0.64082500    0.88425900
 H                 -0.52172300   -1.24107500    0.57469700
 F                  0.59889800   -0.88583500    1.10355900

 1 2 2.0 4 1.0
 2
 3 8 1.0
 4 5 1.0 6 1.0 7 1.0
 5
 6
 7
 8 9 1.0 10 1.0 11 1.0
 9
 10
 11
 12
 13

