%nprocshared=8
%nprocl=1
# opt=(calcfc,ts,noeigentest) freq=noraman b3lyp/def2tzvp geom=connectivity

Title Card Required

0 1
 C                  1.16767900   -0.44245900   -0.14802900
 O                  1.01747200   -1.39258200   -0.88516500
 O                  0.27102300    0.68014800   -0.73498800
 O                 -1.77972900   -0.64647000   -0.38103200
 C                 -2.80169400    0.09129700    0.34667500
 H                 -2.35718000    0.80108300    1.04954600
 H                 -3.40194900    0.59716000   -0.41811500
 H                 -3.40381100   -0.65980800    0.87321500
 H                 -0.96762500    0.12868700   -0.83464600
 H                 -1.04631900   -1.08586300    0.37074600
 C                  2.37003300    0.08140100    0.55595500
 H                  2.97061800   -0.76423600    0.93684700
 H                  3.00551800    0.64911000   -0.14034100
 H                  2.14338700    0.72086800    1.41929200
 C                  0.21697100    1.97789400   -0.11344600
 H                  1.19824700    2.44844500   -0.24081100
 H                 -0.54042100    2.53551900   -0.67485700
 H                 -0.04431600    1.89918900    0.94529400
 F                  0.07286500   -0.73863500    0.98626400

 1 2 2.0 11 1.0
 2
 3 15 1.0
 4 5 1.0
 5 6 1.0 7 1.0 8 1.0
 6
 7
 8
 9
 10
 11 12 1.0 13 1.0 14 1.0
 12
 13
 14
 15 16 1.0 17 1.0 18 1.0
 16
 17
 18
 19

