%nprocshared=8
%nprocl=1
# opt=(calcfc,ts,noeigentest) freq=noraman b3lyp/def2tzvp geom=connectivity

Title Card Required

0 1
 C                 -1.28853100   -0.17145300    0.15146500
 C                 -1.82486400   -1.15556100   -0.83299000
 H                 -2.15573600   -2.07705400   -0.32516900
 H                 -2.69931300   -0.72495700   -1.34683600
 H                 -1.09774100   -1.44205800   -1.60665900
 O                 -1.78539300    0.47320700    1.03661100
 O                 -0.27125400    0.66453500   -0.70455500
 O                  1.74436700   -0.74173800   -0.43335500
 C                  2.87027300   -0.08682400    0.20770200
 H                  3.40613600    0.43816800   -0.59078800
 H                  2.53213600    0.60145800    0.98834500
 H                  3.49504800   -0.88314700    0.63036700
 H                  1.05964000   -1.16816200    0.37653800
 H                  0.89751000    0.10490100   -0.76638400
 C                 -0.08097800    2.02004300   -0.21570100
 H                  0.25284200    2.00193900    0.82726200
 H                  0.64579200    2.47366400   -0.89170000
 H                 -1.05543900    2.52142100   -0.27814500
 F                 -0.09311400   -0.96127000    0.88118900

 1 2 1.0 6 2.0
 2 3 1.0 4 1.0 5 1.0
 3
 4
 5
 6
 7 15 1.0
 8 9 1.0
 9 10 1.0 11 1.0 12 1.0
 10
 11
 12
 13
 14
 15 16 1.0 17 1.0 18 1.0
 16
 17
 18
 19

