%nprocshared=8
%nprocl=1
# opt=(calcfc,ts,noeigentest) freq=noraman b3lyp/def2tzvp geom=connectivity

Title Card Required

0 1
 C                  0.77721500   -0.66057900   -0.18223000
 C                  2.23014800   -0.88060000    0.06927100
 H                  2.40176400   -1.93536400    0.34777700
 H                  2.81058000   -0.68355800   -0.84446100
 H                  2.64295500   -0.26690500    0.88087100
 O                 -0.03787700   -1.38010300   -0.74035600
 O                  0.43897500    0.76683300   -0.61884900
 O                 -1.79429900    0.63960500    0.41909900
 C                 -2.70884100   -0.26004300   -0.29467400
 H                 -3.22908100    0.36590100   -1.02455100
 H                 -2.13256700   -1.06720600   -0.78315800
 H                 -3.39527500   -0.65464900    0.45970300
 H                 -1.13247900   -0.00597300    1.08180100
 H                 -0.92032800    0.92169300   -0.32577300
 C                  1.20546000    1.88571700   -0.13024400
 H                  1.20445500    1.91604900    0.96318700
 H                  2.22310600    1.79831400   -0.52377300
 H                  0.71019600    2.76801400   -0.55144000
 F                  0.10426500   -0.43044100    1.22976900

 1 2 1.0 6 2.0
 2 3 1.0 4 1.0 5 1.0
 3
 4
 5
 6
 7 15 1.0
 8 9 1.0
 9 10 1.0 11 1.0 12 1.0
 10
 11
 12
 13
 14
 15 16 1.0 17 1.0 18 1.0
 16
 17
 18
 19

