%nprocshared=8
%nprocl=1
# opt=(calcfc,ts,noeigentest) freq=noraman b3lyp/def2tzvp geom=connectivity

Title Card Required

0 1
 C                  0.88396400   -0.57519800    0.13052200
 C                  2.38390800   -0.54252900    0.12897400
 H                  2.78735100   -1.55611000    0.29421800
 H                  2.80002400   -0.17661400   -0.81961400
 H                  2.76547500    0.08290700    0.94812900
 O                  0.33008700    0.77521800   -0.62011800
 O                  0.18960800   -0.65338500    1.18421400
 O                 -1.87819700    0.44897600    0.46797000
 C                 -2.86811000   -0.32052300   -0.25867500
 H                 -3.59494300   -0.68679000    0.47499000
 H                 -3.33894600    0.38672500   -0.95006800
 H                 -2.39992800   -1.15131400   -0.79677000
 H                 -1.26460900   -0.23666800    1.08332300
 H                 -0.87331100    0.76621900   -0.31549600
 C                  0.86413100    2.01404900   -0.08629800
 H                  0.82816000    1.99839300    1.00917700
 H                  1.89079600    2.10239500   -0.45452700
 H                  0.24033300    2.81589300   -0.49454200
 F                  0.38269500   -1.37403300   -0.85805400

 1 2 1.0 7 2.0 19 1.0
 2 3 1.0 4 1.0 5 1.0
 3
 4
 5
 6 15 1.0
 7
 8 9 1.0
 9 10 1.0 11 1.0 12 1.0
 10
 11
 12
 13
 14
 15 16 1.0 17 1.0 18 1.0
 16
 17
 18
 19

