%nprocshared=8
%nprocl=1
# opt=(calcfc,ts,noeigentest) freq=noraman b3lyp/def2tzvp geom=connectivity

Title Card Required

0 1
 C                 -0.78334200   -0.60853600    0.18697300
 C                 -0.50387200   -1.68808200   -0.83288400
 H                 -0.97129100   -2.63696700   -0.52676700
 H                 -0.89399300   -1.43164900   -1.82858300
 H                  0.57560800   -1.86988700   -0.92666900
 O                 -0.40600400    0.69842600   -0.68223200
 O                 -0.12672800   -0.49605000    1.27379800
 O                  1.82627700    0.66687600    0.39466900
 H                  1.20896200    0.09693900    1.15271200
 H                  0.80442400    0.85020400   -0.38066400
 C                 -1.05634800    1.94589700   -0.30697800
 H                 -0.48191400    2.73870700   -0.79442400
 H                 -2.07594000    1.90593800   -0.70513800
 H                 -1.05847700    2.05865300    0.78347400
 C                  2.75802700   -0.25034100   -0.22687800
 H                  2.23091800   -1.13359300   -0.60989400
 H                  3.23757400    0.31378700   -1.03454400
 H                  3.49401200   -0.53061900    0.53583900
 F                 -2.10055900   -0.41212900    0.39148800

 1 2 1.0 7 2.0 19 1.0
 2 3 1.0 4 1.0 5 1.0
 3
 4
 5
 6 11 1.0
 7
 8 15 1.0
 9
 10
 11 12 1.0 13 1.0 14 1.0
 12
 13
 14
 15 16 1.0 17 1.0 18 1.0
 16
 17
 18
 19

