%nprocshared=8
%nprocl=1
# freq=noraman b3lyp/def2tzvp geom=connectivity

ts632freq

0 1
 O                 -0.19385200    0.30657800    1.08665400
 O                  1.91206400    0.83627700    0.07288100
 H                  0.87698100    0.48875400    0.81580900
 H                  1.32229700    0.57335800   -0.75994800
 C                 -0.78083400   -0.47076800    0.25493200
 C                 -0.41471800   -1.91159400    0.10118800
 H                  0.66373200   -2.03050700    0.13817000
 H                 -0.79825100   -2.30016300   -0.83700000
 H                 -0.85980300   -2.46229000    0.93506900
 O                 -2.01552700   -0.20544400   -0.08968900
 C                  3.12516800    0.09584100    0.13844600
 H                  2.94925900   -0.98401700    0.10665800
 H                  3.77092700    0.37004900   -0.69759400
 H                  3.63218100    0.34495900    1.07046800
 C                 -2.46488600    1.16029600    0.02942700
 H                 -3.47293400    1.16237700   -0.37408700
 H                 -2.46530000    1.47225600    1.07169100
 H                 -1.81166300    1.80140100   -0.55875300
 F                  0.19807900    0.09132100   -1.40146700

 1 5 2.0
 2 11 1.0
 3
 4
 5 6 1.0 10 1.5
 6 7 1.0 8 1.0 9 1.0
 7
 8
 9
 10 15 1.0
 11 12 1.0 13 1.0 14 1.0
 12
 13
 14
 15 16 1.0 17 1.0 18 1.0
 16
 17
 18
 19

