%nprocshared=8
%nprocl=1
# opt=(calcfc,ts,noeigentest) freq=noraman b3lyp/def2tzvp geom=connectivity

Title Card Required

0 1
 O                 -0.07288200   -0.34670600    1.10878100
 O                  1.84596100    0.45152300   -0.11250900
 H                  1.06336100    0.27578400    0.80388700
 H                  1.15637900   -0.07888600   -0.90590900
 C                 -0.97637000   -0.40533500    0.19769300
 C                 -1.92096200   -1.56022800    0.09292300
 H                 -1.37998600   -2.51512900    0.00276400
 H                 -2.58693100   -1.46491800   -0.78015900
 H                 -2.54993600   -1.61685300    0.99498100
 O                 -1.58383600    0.75266400   -0.23849000
 C                  3.02296900   -0.36804000    0.10990600
 H                  3.60517900   -0.33823300   -0.81760100
 H                  3.57373200    0.10827500    0.92876100
 H                  2.73592400   -1.39263000    0.36861700
 C                 -0.94816200    2.01803800    0.07006600
 H                 -1.70538900    2.74220300   -0.25331700
 H                 -0.75775500    2.08872600    1.14551100
 H                 -0.02737600    2.12543000   -0.51210200
 F                  0.03266700   -0.54446900   -1.09569100

 1 5 2.0
 2 11 1.0
 3
 4
 5 6 1.0 10 1.0
 6 7 1.0 8 1.0 9 1.0
 7
 8
 9
 10 15 1.0
 11 12 1.0 13 1.0 14 1.0
 12
 13
 14
 15 16 1.0 17 1.0 18 1.0
 16
 17
 18
 19

