%nprocshared=8
%nprocl=1
# freq=readisotopes b3lyp/def2tzvp geom=connectivity

meoh 373.15k 1.0atm

0 1
 C                  0.66856800   -0.02076100    0.00000100
 H                  1.08129300    0.99083900   -0.00042400
 H                  1.02928600   -0.54699300   -0.89570200
 H                  1.02934500   -0.54627500    0.89610400
 O                 -0.74944900    0.12293000    0.00000100
 H                 -1.15574200   -0.75644000    0.00000600

 1 2 1.0 3 1.0 4 1.0 5 1.0
 2
 3
 4
 5 6 1.0
 6

373.15 1.0
12
1
1
1
16
1






