%nprocshared=8
%nprocl=1
# freq=readisotopes b3lyp/def2tzvp geom=connectivity

ts612Br def2tzvp 373.15k

0 1
 C                  1.33352200    0.63185300    0.58837300
 O                  2.39998800    0.73239200    0.09055700
 O                  0.18755700    1.64361700   -0.14165000
 O                 -2.11222200    0.51210400   -0.33407000
 C                 -3.19306300    0.49622900    0.60527000
 H                 -2.87831200    0.08323000    1.57191600
 H                 -3.52103400    1.52968700    0.73866200
 H                 -4.02549200   -0.09674200    0.21104600
 H                 -0.75436400    1.22148400   -0.12465500
 H                 -1.70174000   -0.39094200   -0.41442800
 C                  0.89495600    0.50639500    2.01402400
 H                  1.41897100   -0.34655000    2.44948800
 H                  1.19053000    1.42738200    2.53432600
 H                 -0.17841300    0.35214300    2.10585300
 C                  0.52689900    1.97159400   -1.51672700
 H                 -0.25795300    2.63447300   -1.88421500
 H                  1.48881900    2.48095700   -1.50011300
 H                  0.58298900    1.05335400   -2.10633700
 Br                 0.21313000   -1.56256600   -0.30416800

 1 2 2.0 11 1.0
 2
 3 15 1.0
 4 5 1.0 10 1.0
 5 6 1.0 7 1.0 8 1.0
 6
 7
 8
 9
 10
 11 12 1.0 13 1.0 14 1.0
 12
 13
 14
 15 16 1.0 17 1.0 18 1.0
 16
 17
 18
 19

373.15 1.0
12
16
16
16
12
1
1
1
1
1
12
1
1
1
12
1
1
1
79







