%nprocshared=8
%nprocl=1
# freq=readisotopes b3lyp/def2tzvp geom=connectivity

Ts-6.1.2-oh temperature 373.15k 1 atm

0 1
 C                 -1.16529100   -0.46393200    0.01571600
 O                 -2.14854300   -0.15549100    0.65324900
 O                  0.02380600   -1.15931400    1.02527500
 O                 -0.25882300    0.87675800   -0.51615500
 O                  1.84192400    0.27978000    0.46256600
 C                  2.91743700   -0.22229200   -0.33993900
 H                  2.55311200   -0.91334100   -1.11067000
 H                  3.42336300    0.62170900   -0.81733100
 H                  3.62390100   -0.74424900    0.31144700
 H                  0.95063900    0.70354500   -0.12747100
 H                  1.10686100   -0.52914900    0.87459300
 C                 -1.11935200   -1.36570900   -1.19370600
 H                 -0.10554600   -1.48253400   -1.58204800
 H                 -1.51344000   -2.34622600   -0.91162300
 H                 -1.75274200   -0.92993900   -1.97186900
 H                 -0.35506300   -1.01425500    1.91040000
 C                 -0.77661600    2.13905200   -0.08756300
 H                 -0.87424200    2.79263400   -0.96093100
 H                 -1.75714200    1.98353200    0.37335700
 H                 -0.10368200    2.60169100    0.64562400

 1 2 2.0 12 1.0
 2
 3 16 1.0
 4 17 1.0
 5 6 1.0
 6 7 1.0 8 1.0 9 1.0
 7
 8
 9
 10
 11
 12 13 1.0 14 1.0 15 1.0
 13
 14
 15
 16
 17 18 1.0 19 1.0 20 1.0
 18
 19
 20

373.15 1.0
12
16
16
16
16
12
1
1
1
1
1
12
1
1
1
1
12
1
1
1









