%nprocshared=8
%nprocl=1
# freq b3lyp/def2tzvp geom=connectivity

pc41Ifreq-s17 def2tzvp

0 1
 C                  0.17196600    1.30710500    0.26420800
 C                  0.50695900    1.96068500   -1.04750100
 H                 -0.41676000    2.31664600   -1.51676700
 H                  1.19040400    2.79436500   -0.86284100
 H                  0.97490300    1.22769800   -1.70993600
 O                  0.52974600    1.60884600    1.35598500
 C                  3.60120800   -0.91656000    0.33920400
 H                  4.07604000   -1.89584500    0.19104300
 H                  3.19995800   -0.85351600    1.35927900
 H                  4.35394400   -0.13630100    0.20644100
 O                  2.59093400   -0.66834200   -0.64154000
 H                  1.89010300   -1.33258500   -0.54987600
 I                 -1.24367600   -0.44814900   -0.00317700

 1 2 1.0 6 2.0
 2 3 1.0 4 1.0 5 1.0
 3
 4
 5
 6
 7 8 1.0 9 1.0 10 1.0 11 1.0
 8
 9
 10
 11 12 1.0
 12
 13

