%nprocshared=8
%nprocl=1
# freq b3lyp/def2tzvp geom=connectivity

pc612 freq-s25 Def2TZVP

0 1
 C                 -0.76560100   -1.65498600   -0.07740200
 O                 -0.93870000   -2.29268200   -1.05953600
 O                  2.92052500   -0.77729300    0.42378000
 O                  1.92267500    1.67030000   -0.52982200
 C                  2.09944700    2.85329800    0.25490800
 H                  1.73030700    2.71680400    1.27969000
 H                  3.17341900    3.05040100    0.28571900
 H                  1.59433400    3.71198900   -0.20496600
 H                  2.68246200    0.10776100    0.07039000
 H                  0.97007000    1.47201400   -0.59520600
 C                 -0.01269800   -2.00907500    1.16910900
 H                 -0.50654900   -1.60996900    2.05629300
 H                  0.07971400   -3.09928600    1.22230100
 H                  0.99514100   -1.57042100    1.08469900
 C                  3.94974600   -1.34595700   -0.37714100
 H                  4.86102200   -0.73065700   -0.36440800
 H                  4.18781400   -2.32477800    0.04915100
 H                  3.62894600   -1.48463200   -1.41976100
 I                 -1.62751000    0.45091500    0.00082800

 1 2 2.0 11 1.0
 2
 3 9 1.0 15 1.0
 4 5 1.0 10 1.0
 5 6 1.0 7 1.0 8 1.0
 6
 7
 8
 9
 10
 11 12 1.0 13 1.0 14 1.0
 12
 13
 14
 15 16 1.0 17 1.0 18 1.0
 16
 17
 18
 19

