%nprocshared=8
%nprocl=1
# freq b3lyp/def2tzvp geom=connectivity

pc621Ifreq-s12 def2tzvp

0 1
 C                  0.44669100    0.68703100    1.18812100
 C                  0.90517700    2.12249600    1.22024600
 H                  1.93508800    2.15517000    1.59436200
 H                  0.88614300    2.55200800    0.21681800
 H                  0.23531300    2.67169300    1.88506700
 O                 -1.66341400    1.62508800   -0.39571000
 O                 -0.30982800    0.17613600    1.95779300
 O                 -2.90107600   -0.79003900    0.66147500
 C                 -3.03156000   -2.06015100    0.01805400
 H                 -3.83914600   -1.95979300   -0.71083700
 H                 -2.10854500   -2.34444300   -0.50446500
 H                 -3.30038900   -2.84486100    0.73707200
 H                 -2.19952700   -0.84041400    1.33187900
 H                 -2.23340800    0.86434500   -0.16837100
 C                 -1.81645100    1.92641200   -1.77750600
 H                 -2.85524200    2.19027600   -2.02393100
 H                 -1.18200200    2.79147800   -1.99148300
 H                 -1.49782000    1.09042700   -2.41740600
 I                  1.43643300   -0.57490800   -0.37039000

 1 2 1.0 7 2.0
 2 3 1.0 4 1.0 5 1.0
 3
 4
 5
 6 14 1.0 15 1.0
 7
 8 9 1.0 13 1.0
 9 10 1.0 11 1.0 12 1.0
 10
 11
 12
 13
 14
 15 16 1.0 17 1.0 18 1.0
 16
 17
 18
 19

