%nprocshared=8
%nprocl=1
# opt=(calcfc,ts,noeigentest) freq=noraman b3lyp/def2tzvp geom=connectivity

ts41I def2tzvp

0 1
 C                  0.75399966   -0.14377983    0.43223760
 C                  1.82300066   -0.72007083   -0.40694140
 H                  2.77158966   -0.16461983   -0.28048440
 H                  2.00952066   -1.76951683   -0.12353840
 H                  1.58313166   -0.70227483   -1.48490240
 O                  0.41950866   -0.16364883    1.57375860
 C                 -2.24476666   -0.37037420   -0.24770849
 H                 -2.41431466   -1.45079520   -0.30507549
 H                 -2.98778966    0.18096880   -0.82882649
 H                 -2.21728266   -0.03620820    0.80031351
 O                 -0.95736466   -0.14598520   -0.88261449
 H                 -0.85502122    0.91427718   -0.98395303
 I                  0.66158619    2.17580043   -0.17686599

 1 2 1.0 6 2.0
 2 3 1.0 4 1.0 5 1.0
 3
 4
 5
 6
 7 8 1.0 9 1.0 10 1.0 11 1.0
 8
 9
 10
 11
 12
 13












