%nprocshared=8
%nprocl=1
# opt=(calcfc,ts,noeigentest) freq=noraman b3lyp/def2tzvp geom=connectivity

ts42I def2tzvp

0 1
 C                  0.74396358    0.30487078   -0.45377682
 O                  1.43036958   -0.30235322   -1.20649782
 O                 -0.86838300   -0.54827821   -0.44276952
 C                  0.67693758    1.68151878    0.07271618
 H                  0.29526358    2.37923078   -0.68994982
 H                  0.05936858    1.79234178    0.97861018
 H                  1.69338758    2.02066878    0.35523118
 C                 -2.06478800    0.21273379   -0.16708552
 H                 -2.14158900    0.97139479   -0.95326852
 H                 -2.89397600   -0.50190721   -0.24941852
 H                 -2.03521100    0.66571279    0.82713548
 H                 -0.72948953   -1.32428232    0.48368102
 I                  0.79858095   -1.00492625    1.45764832

 1 2 2.0 4 1.0
 2
 3 8 1.0
 4 5 1.0 6 1.0 7 1.0
 5
 6
 7
 8 9 1.0 10 1.0 11 1.0
 9
 10
 11
 12
 13









