%nprocshared=8
%nprocl=1
# freq=noraman b3lyp/def2tzvp geom=connectivity

ts614Ifreq def2tzvp

0 1
 C                  0.09466300    1.69874700    0.66842100
 O                  0.34652700    1.60608600    1.81456600
 O                  1.48082000    1.33822500   -0.25894700
 O                  2.04753700   -0.96884500    0.70089300
 C                  2.87023800   -1.96789600    0.08301700
 H                  2.51315800   -2.21171500   -0.92512600
 H                  3.88276200   -1.56141200    0.03027800
 H                  2.88041300   -2.87514100    0.69627500
 H                  1.81265000    0.43356200    0.13188500
 H                  1.10039100   -1.26208400    0.69229100
 C                 -0.77636700    2.62378800   -0.11720500
 H                 -1.73090400    2.68960500    0.40902400
 H                 -0.29569200    3.61273000   -0.12427600
 H                 -0.95388300    2.27685500   -1.13193500
 C                  1.43649200    1.25524300   -1.70662100
 H                  1.29771000    2.26613200   -2.09080500
 H                  2.40495200    0.87064700   -2.03531900
 H                  0.62667500    0.58682800   -2.01433000
 I                 -1.25070700   -0.79790600   -0.09916500

 1 2 2.0 11 1.0
 2
 3 15 1.0
 4 5 1.0 10 1.0
 5 6 1.0 7 1.0 8 1.0
 6
 7
 8
 9
 10
 11 12 1.0 13 1.0 14 1.0
 12
 13
 14
 15 16 1.0 17 1.0 18 1.0
 16
 17
 18
 19









