%nprocshared=8

%nprocl=1
# opt=(calcfc,ts,noeigentest) freq=noraman b3lyp/def2tzvp geom=connectivity

Title Card Required

0 1
 C                  0.73402770    0.39352477   -0.39335189
 O                  1.27329752    1.86065033   -0.24627823
 O                 -1.21161357    0.29567569    0.30650923
 O                 -0.60552141    2.94159784    0.65395456
 C                 -0.76544922    3.94680035   -0.34041529
 H                 -0.09854191    3.70914203   -1.11582044
 H                 -1.77880949    4.01303821   -0.65200740
 H                 -0.42135181    4.89013107    0.02265940
 H                 -1.30084516    1.51392678    0.61554322
 H                  0.51790945    2.60197927    0.16870994
 C                  0.64360304    0.30052823   -1.92625611
 H                  1.63160598    0.26973079   -2.34576888
 H                  0.11372656   -0.58418086   -2.19518518
 H                  0.22902435    1.15364621   -2.37895498
 C                 -1.93153786    0.25021198   -0.90078555
 H                 -1.84807018   -0.73294912   -1.26352607
 H                 -2.87399733    0.67109125   -1.09261114
 H                 -1.27044548    0.79182397   -1.51079645
 I                  1.73832581   -0.88692286    0.64430854

 1 2 1.5 11 1.0 19 1.0
 2
 3 9 1.0 15 1.0
 4 5 1.0 10 1.0
 5 6 1.0 7 1.0 8 1.0
 6
 7
 8
 9
 10
 11 12 1.0 13 1.0 14 1.0
 12
 13
 14
 15 16 1.0 17 1.0 18 1.0
 16
 17
 18
 19

