%nprocshared=8
%nprocl=1
# freq b3lyp/def2tzvp geom=connectivity

ts623I def2tzvp

0 1
 C                  0.74738400   -0.93039800    0.53630800
 C                  0.43585300   -2.40766600    0.50070900
 H                 -0.30692600   -2.61952200    1.27151000
 H                  0.04589200   -2.71631500   -0.46998400
 H                  1.34882700   -2.97167500    0.74095000
 O                  1.44509500   -0.46487500   -0.74848300
 O                  1.16901300   -0.35902200    1.55774100
 O                  1.88868600    1.68572600    0.25709000
 C                  1.11408500    2.90423300    0.03317800
 H                  1.46072600    3.31963000   -0.91319100
 H                  0.05026600    2.66087100   -0.00616400
 H                  1.34441600    3.58672200    0.85229900
 H                  1.59960200    1.15928700    1.08664000
 H                  1.68095500    0.81759300   -0.42993800
 C                  2.67547700   -1.16772500   -1.04574500
 H                  3.34156600   -1.18248900   -0.17573000
 H                  2.44305400   -2.18578600   -1.36675200
 H                  3.14647200   -0.62778000   -1.86992200
 I                 -1.54743400    0.06555100   -0.13957000

 1 2 1.0 7 2.0
 2 3 1.0 4 1.0 5 1.0
 3
 4
 5
 6 15 1.0
 7
 8 9 1.0
 9 10 1.0 11 1.0 12 1.0
 10
 11
 12
 13
 14
 15 16 1.0 17 1.0 18 1.0
 16
 17
 18
 19

