%nprocshared=8
%nprocl=1
# freq=noraman b3lyp/def2tzvp geom=connectivity

ts622Ifreq def2tzvp

0 1
 C                  0.22613100    0.76187400    0.02252000
 C                  0.21653300    1.89428000    1.01486900
 H                 -0.44556000    2.68710800    0.64423800
 H                 -0.13782100    1.57804700    2.00166700
 H                  1.22349600    2.31625800    1.12805500
 O                  1.04948300   -0.53543300    1.07043600
 O                  0.90231400    0.74557800   -1.01298900
 O                  3.09658700    0.42887300    0.10174000
 C                  3.97907700   -0.35657200   -0.73044600
 H                  4.59224000   -0.95845700   -0.05390700
 H                  3.40611000   -0.99440700   -1.41227800
 H                  4.61900800    0.32765500   -1.30007400
 H                  2.42368100    0.85359500   -0.55236000
 H                  2.07069600   -0.31689300    0.78016400
 C                  0.78317600   -1.89746900    0.67048900
 H                  1.56204200   -2.52667200    1.11333700
 H                 -0.19248700   -2.17291100    1.07683500
 H                  0.78084100   -1.98120400   -0.42275100
 I                 -1.72677000   -0.11956500   -0.19134000

 1 2 1.0 7 2.0 19 1.0
 2 3 1.0 4 1.0 5 1.0
 3
 4
 5
 6 15 1.0
 7
 8 9 1.0
 9 10 1.0 11 1.0 12 1.0
 10
 11
 12
 13
 14
 15 16 1.0 17 1.0 18 1.0
 16
 17
 18
 19









