%nprocshared=8
%nprocl=1
# freq=noraman b3lyp/def2tzvp geom=connectivity

ts631Ifreq def2tzvp

0 1
 C                 -1.47952300   -0.84994500    0.52475400
 C                 -1.21261600   -2.23162300    1.03347200
 H                 -0.78283000   -2.16144500    2.03218500
 H                 -2.17102600   -2.77057000    1.08836100
 H                 -0.53105000   -2.78128200    0.38531100
 O                 -1.72303300    0.07429900    1.36803800
 O                 -1.80989600   -0.60505100   -0.72349300
 O                 -0.88168800    2.23737600    0.57609800
 C                 -1.39077000    2.93839700   -0.57200500
 H                 -1.45220900    2.27519900   -1.44134500
 H                 -2.38532200    3.30307800   -0.30736200
 H                 -0.73904500    3.78777800   -0.79608500
 H                  0.01673000    1.84736500    0.36704500
 C                 -1.42886100   -1.51254100   -1.78524200
 H                 -0.33516200   -1.54076600   -1.83025900
 H                 -1.86048300   -2.50200700   -1.61587000
 H                 -1.84340200   -1.07067800   -2.69023100
 I                  1.54702500   -0.06004900   -0.02179800
 H                 -1.52095100    1.07720900    0.99251100

 1 2 1.0 6 2.0 7 1.5
 2 3 1.0 4 1.0 5 1.0
 3
 4
 5
 6
 7 14 1.0
 8 9 1.0 13 1.0
 9 10 1.0 11 1.0 12 1.0
 10
 11
 12
 13
 14 15 1.0 16 1.0 17 1.0
 15
 16
 17
 18
 19






