%nprocshared=8
%nprocl=1
# freq=noraman b3lyp/def2tzvp geom=connectivity

ts632I def2tzvp

0 1
 O                  1.83319300    0.79408500   -0.69356500
 O                  0.14432900    2.14200700    0.33854900
 H                  1.11086200    1.50954300   -0.13108800
 H                 -0.54317200    1.38496800    0.30514600
 C                  1.94640200   -0.44458200   -0.45164100
 C                  2.17716700   -1.41285800   -1.56882700
 H                  1.52892300   -1.14517000   -2.40583900
 H                  1.97157200   -2.43232800   -1.24022400
 H                  3.22261600   -1.33985900   -1.89346800
 O                  2.08759400   -0.96058700    0.76807200
 C                 -0.32083500    3.23566700   -0.48972900
 H                 -1.24104800    3.62999800   -0.05338400
 H                  0.45532800    4.00225500   -0.48059000
 H                 -0.50849300    2.88674500   -1.50966800
 C                  1.90991000   -0.13572800    1.94328800
 H                  2.30145800   -0.73546500    2.76400200
 H                  2.46555300    0.79959400    1.84350900
 H                  0.83925800    0.04264200    2.07569700
 I                 -1.47923900   -0.60116900    0.01552700

 1 5 2.0
 2 11 1.0
 3
 4
 5 6 1.0 10 1.5
 6 7 1.0 8 1.0 9 1.0
 7
 8
 9
 10 15 1.0
 11 12 1.0 13 1.0 14 1.0
 12
 13
 14
 15 16 1.0 17 1.0 18 1.0
 16
 17
 18
 19







