%nprocshared=8
%nprocl=1
# opt freq b3lyp/def2tzvp geom=connectivity

int622br Def2TZVP

0 1
 C                  0.95699100    1.02946000    1.33899500
 H                  2.01145000    1.34659800    1.38318100
 H                  0.79174700    0.26852900    2.11350900
 H                  0.34619900    1.90824300    1.61155000
 C                  0.60938600    0.54671000   -0.04205300
 O                  1.46539500   -0.39827400   -0.63678400
 O                  0.63247300    1.61505700   -0.92493200
 C                  1.71013400   -1.63726800    0.06267500
 H                  0.77228000   -2.18955500    0.19983300
 H                  2.37360100   -2.16594500   -0.63522700
 H                  2.21166400   -1.44158600    1.01381100
 H                  0.66833000    1.30823400   -1.87418700
 Br                -1.30335100   -0.24006300    0.01495900

 1 2 1.0 3 1.0 4 1.0 5 1.0
 2
 3
 4
 5 6 1.0 7 1.0
 6 8 1.0
 7 12 1.0
 8 9 1.0 10 1.0 11 1.0
 9
 10
 11
 12
 13








