%nprocshared=8
%nprocl=1
# freq b3lyp/def2tzvp geom=connectivity

pc612Br def2tzvp

0 1
 C                  1.30226800    1.17615900   -0.09500000
 O                  1.37330900    1.72447400   -1.14094700
 O                 -2.10170800    1.23539100    0.47645700
 O                 -1.89601200   -1.43366500   -0.44136900
 C                 -2.38516300   -2.55995200    0.29015100
 H                 -1.97350900   -2.59189300    1.30759500
 H                 -3.47002000   -2.44666200    0.34943800
 H                 -2.15475000   -3.49985000   -0.22779700
 H                 -2.16950500    0.31051900    0.16019100
 H                 -0.92492800   -1.48089400   -0.49860100
 C                  0.99835800    1.73431300    1.26045500
 H                  1.57390400    1.23047800    2.03839700
 H                  1.20048600    2.80965100    1.24953200
 H                 -0.07562500    1.57071500    1.43122300
 C                 -2.82653700    2.08794700   -0.40248600
 H                 -3.89401000    1.82592200   -0.43594900
 H                 -2.73315400    3.10665900   -0.01485300
 H                 -2.42214000    2.06292100   -1.42457700
 Br                 1.58585600   -0.84965600   -0.04018400

 1 2 2.0 11 1.0
 2
 3 9 1.0 15 1.0
 4 5 1.0 10 1.0
 5 6 1.0 7 1.0 8 1.0
 6
 7
 8
 9
 10
 11 12 1.0 13 1.0 14 1.0
 12
 13
 14
 15 16 1.0 17 1.0 18 1.0
 16
 17
 18
 19

