%nprocshared=8
%nprocl=1
# freq b3lyp/def2tzvp geom=connectivity

pc611Br def2tzvp

0 1
 C                 -1.40765200    0.92058800    0.30134200
 C                 -1.62096600    1.67114000   -0.97745100
 H                 -2.43697900    1.22599900   -1.55259400
 H                 -1.82804400    2.71815100   -0.74079500
 H                 -0.69430900    1.60457600   -1.55597700
 O                 -1.24685200    1.32038700    1.40378900
 O                  1.58462600    1.56607500   -0.60083600
 O                  2.18007500   -1.12676300   -0.39154700
 C                  3.09228000   -2.02563900    0.24201800
 H                  4.09734200   -1.67661900   -0.00557000
 H                  2.97126600   -2.02377800    1.33328100
 H                  2.97023500   -3.04805100   -0.13835900
 H                  1.26216600   -1.39477500   -0.19769900
 H                  2.00676500    0.67987600   -0.55081200
 C                  2.23489500    2.44740200    0.30424300
 H                  1.66435200    3.38064000    0.31680600
 H                  2.25717500    2.04417800    1.32744900
 H                  3.26453100    2.67444500   -0.01174700
 Br                -1.41338900   -1.09551900   -0.02103300

 1 2 1.0 6 2.0
 2 3 1.0 4 1.0 5 1.0
 3
 4
 5
 6
 7 14 1.0 15 1.0
 8 9 1.0 13 1.0
 9 10 1.0 11 1.0 12 1.0
 10
 11
 12
 13
 14
 15 16 1.0 17 1.0 18 1.0
 16
 17
 18
 19

