%nprocshared=8
%nprocl=1
# freq b3lyp/def2tzvp geom=connectivity

pc623Br def2tzvp

0 1
 C                  0.84459200    0.79469800    0.78824600
 C                  0.95866400    2.21876800    0.33983000
 H                  1.98185900    2.45849600    0.04037900
 H                  0.29871800    2.32431300   -0.52875400
 H                  0.61881400    2.87544600    1.14521600
 O                 -1.81507700    1.01493000   -0.82953200
 O                  0.25646200    0.36519800    1.73282100
 O                 -2.00225200   -1.36623000    0.58819400
 C                 -1.90377300   -2.66929600    0.00773100
 H                 -1.99951800   -3.45071200    0.77262900
 H                 -2.73350900   -2.76149600   -0.69696100
 H                 -0.95797100   -2.79852700   -0.53359100
 H                 -1.24579200   -1.21421300    1.17935500
 H                 -1.94939800    0.11303100   -0.46671700
 C                 -2.95255800    1.80643400   -0.52819000
 H                 -3.16916400    1.82736800    0.55058400
 H                 -2.73875400    2.82803000   -0.85953400
 H                 -3.85132000    1.45620900   -1.05848100
 Br                 1.78718300   -0.47636400   -0.43204800

 1 2 1.0 7 2.0 19 1.0
 2 3 1.0 4 1.0 5 1.0
 3
 4
 5
 6 14 1.0 15 1.0
 7
 8 9 1.0 13 1.0
 9 10 1.0 11 1.0 12 1.0
 10
 11
 12
 13
 14
 15 16 1.0 17 1.0 18 1.0
 16
 17
 18
 19







