%nprocshared=8
%nprocl=1
# opt freq b3lyp/def2tzvp geom=connectivity

pc622Br def2tzvp

0 1
 C                 -0.00252800    0.65044200   -0.81783900
 C                 -0.80070000    1.87280100   -1.18445300
 H                 -1.45758200    1.58330600   -2.00853700
 H                 -1.41517800    2.24633500   -0.36576800
 H                 -0.10876900    2.64913500   -1.53346000
 O                  0.90341300    1.09512400    0.52322600
 O                  0.74836900    0.06578400   -1.57642400
 O                  2.37556300   -0.85162300    0.21494700
 H                  1.89759900   -0.90878100   -0.64674200
 H                  1.54872700    0.28576000    0.63755600
 C                  0.31369800    1.61133900    1.72642800
 H                  1.09034100    1.62015900    2.49535500
 H                 -0.00735400    2.63398800    1.52204000
 H                 -0.52881700    0.98668900    2.03077300
 C                  3.75271900   -0.54322600   -0.02204900
 H                  3.86211500    0.38553400   -0.59644000
 H                  4.22800000   -0.43006700    0.95483100
 H                  4.23382300   -1.36672800   -0.56001200
 Br                -1.48284300   -0.73243600    0.19057800

 1 2 1.0 7 2.0
 2 3 1.0 4 1.0 5 1.0
 3
 4
 5
 6 11 1.0
 7
 8 9 1.0 15 1.0
 9
 10
 11 12 1.0 13 1.0 14 1.0
 12
 13
 14
 15 16 1.0 17 1.0 18 1.0
 16
 17
 18
 19








