%nprocshared=8
%nprocl=1
# freq b3lyp/def2tzvp geom=connectivity

pc624Br freq-s14 def2tzvp

0 1
 C                  0.91065200    0.49060200    0.89175400
 O                  0.14268700   -0.00916000    1.65547300
 O                 -1.40516900    1.35999800   -0.93807900
 O                 -2.03676300   -1.28976400   -0.11041800
 C                 -3.18246400   -2.01179000    0.35211900
 H                 -3.93336200   -1.94156500   -0.43777200
 H                 -2.94172600   -3.06907100    0.51973800
 H                 -3.58846400   -1.57605600    1.27442100
 H                 -1.72146400    0.43930900   -0.86627800
 H                 -1.33851600   -1.33267600    0.56291200
 C                  1.31793700    1.92933300    0.79000500
 H                  2.40630800    2.02008100    0.76756500
 H                  0.90890300    2.31313400   -0.15128600
 H                  0.89307000    2.48463600    1.63063000
 C                 -2.46230300    2.22118500   -0.51751600
 H                 -2.06525500    3.24026700   -0.51239100
 H                 -3.31338400    2.18348000   -1.21188200
 H                 -2.81123500    1.97189200    0.49448600
 Br                 1.83989000   -0.65708600   -0.45783200

 1 2 2.0 11 1.0 19 1.0
 2
 3 9 1.0 15 1.0
 4 5 1.0 10 1.0
 5 6 1.0 7 1.0 8 1.0
 6
 7
 8
 9
 10
 11 12 1.0 13 1.0 14 1.0
 12
 13
 14
 15 16 1.0 17 1.0 18 1.0
 16
 17
 18
 19

