%nprocshared=8
%nprocl=1
# freq b3lyp/def2tzvp geom=connectivity

pc631Br freq def2tzvp

0 1
 O                  0.01494100   -1.53993400   -0.07159300
 O                 -2.41809500   -0.56234300    0.39865000
 H                 -0.92934500   -1.33334800    0.19433300
 H                 -2.01632900    0.32127300    0.24662300
 C                  0.87854400   -0.68119100    0.48066200
 C                  0.89811200   -0.53310700    1.98205000
 H                  1.56511800    0.27932800    2.27183800
 H                  1.26434700   -1.47831100    2.40493700
 H                 -0.10470800   -0.33472200    2.36352800
 O                  2.10734900   -0.74919400   -0.03024200
 C                 -3.41298300   -0.80509900   -0.60400200
 H                 -4.22807300   -0.07667500   -0.52230800
 H                 -2.98305000   -0.76251300   -1.61276400
 H                 -3.80979700   -1.80596500   -0.42043200
 Br                 0.08956300    1.41532500   -0.12880000
 C                  2.23853700   -1.02717500   -1.43805100
 H                  3.30787000   -0.96379000   -1.63947400
 H                  1.85855900   -2.02392600   -1.67115800
 H                  1.69388000   -0.26652400   -2.00562200

 1 3 1.0 5 1.5
 2 4 1.0 11 1.0
 3
 4
 5 6 1.0 10 1.5
 6 7 1.0 8 1.0 9 1.0
 7
 8
 9
 10 16 1.0
 11 12 1.0 13 1.0 14 1.0
 12
 13
 14
 15
 16 17 1.0 18 1.0 19 1.0
 17
 18
 19

