%nprocshared=8
%nprocl=1
# opt=(calcfc,ts,noeigentest) freq=noraman b3lyp/def2tzvp geom=connectivity

ts41Br def2tzvp

0 1
 C                  0.27539800    0.91482800   -0.15023800
 C                  0.98055400    2.13288800    0.28075900
 H                  1.74404700    2.43760200   -0.46191100
 H                  0.27152300    2.97111500    0.40111200
 H                  1.51452900    2.01125100    1.24209500
 O                 -0.55147200    0.62520500   -0.95005700
 C                 -1.30159300   -0.53326700    1.39838600
 H                 -2.03899100    0.27900200    1.46430100
 H                 -1.27635400   -1.12917600    2.31286600
 H                 -1.50603300   -1.14311600    0.50842300
 O                  0.00628700    0.10928500    1.29039100
 H                  0.81530300   -0.68086000    1.20220400
 Br                 2.10859400   -0.59888100   -0.28671900

 1 2 1.0 6 2.0
 2 3 1.0 4 1.0 5 1.0
 3
 4
 5
 6
 7 8 1.0 9 1.0 10 1.0 11 1.0
 8
 9
 10
 11
 12
 13







