%nprocshared=8
%nprocl=1
# opt=(calcfc,ts,noeigentest) freq=noraman b3lyp/def2tzvp geom=connectivity

ts613Br def2tzvp

0 1
 C                 -0.66472000    0.64690100    0.84206200
 C                 -2.11305300    0.95334700    0.81564300
 H                 -2.64426700    0.30675800    1.54102900
 H                 -2.28899600    2.00214000    1.11064400
 H                 -2.60125600    0.78614900   -0.15648300
 O                  0.15086100    0.66898000    1.72620600
 O                  0.08861700    1.53292800   -0.31898600
 O                  2.14179000    0.08331400   -0.63119500
 C                  2.93539500    0.03646300    0.59148800
 H                  3.55735700    0.93697300    0.54970900
 H                  2.27091200    0.04700400    1.46982500
 H                  3.54894900   -0.86866100    0.56170200
 H                  1.51248500   -0.75360100   -0.64268400
 H                  1.15335600    1.02652700   -0.45248400
 C                 -0.51064400    1.70020900   -1.62968300
 H                 -0.79385900    0.73127600   -2.05921400
 H                 -1.38168700    2.34774500   -1.48879200
 H                  0.24487300    2.20017300   -2.24606100
 Br                -0.55742500   -1.34473700   -0.23178400

 1 2 1.0 6 2.0
 2 3 1.0 4 1.0 5 1.0
 3
 4
 5
 6
 7 15 1.0
 8 9 1.0
 9 10 1.0 11 1.0 12 1.0
 10
 11
 12
 13
 14
 15 16 1.0 17 1.0 18 1.0
 16
 17
 18
 19






