%nprocshared=8
%nprocl=1
# freq=noraman b3lyp/def2tzvp geom=connectivity

ts614Br def2tzvp

0 1
 C                 -1.21149300    0.84333800    0.67765400
 O                 -1.00417000    0.88524400    1.83520300
 O                  0.02044400    1.66998500   -0.15859000
 O                  2.02103900    0.34865600    0.71910100
 C                  3.30569700    0.24872700    0.09292200
 H                  3.21717600   -0.05297200   -0.95841300
 H                  3.77300100    1.23423600    0.15698100
 H                  3.92768700   -0.47674500    0.62812000
 H                  0.89098200    1.23644900    0.21674400
 H                  1.52125900   -0.50366000    0.60898000
 C                 -2.46094900    0.87655000   -0.13954400
 H                 -3.16498400    0.18524100    0.32846500
 H                 -2.86791100    1.89632200   -0.09437400
 H                 -2.29908200    0.57158800   -1.17021500
 C                  0.08024000    1.67283700   -1.60805300
 H                 -0.74478800    2.28591100   -1.97181900
 H                  1.02889600    2.13734100   -1.88806500
 H                  0.02110100    0.64633800   -1.98052200
 Br                -0.33950900   -1.54971000   -0.20512800

 1 2 2.0 11 1.0
 2
 3 15 1.0
 4 5 1.0 10 1.0
 5 6 1.0 7 1.0 8 1.0
 6
 7
 8
 9
 10
 11 12 1.0 13 1.0 14 1.0
 12
 13
 14
 15 16 1.0 17 1.0 18 1.0
 16
 17
 18
 19

