%nprocshared=8
%nprocl=1
# opt=(calcfc,ts,noeigentest) freq=noraman b3lyp/def2tzvp geom=connectivity

def2tzvp

0 1
 C                  1.29221200    0.61626400    0.42238500
 C                  1.11410700    0.44011100    1.88047700
 H                  1.67297300   -0.44559300    2.23906000
 H                  1.50100900    1.32388300    2.41921600
 H                  0.06504600    0.30047800    2.19513300
 O                  2.17462900    0.97781400   -0.28858700
 O                 -0.04704200    1.55578400    0.05116500
 O                 -1.96111300    0.04610100    0.79111400
 C                 -3.20820800    0.12161500    0.06439900
 H                 -3.65649700    1.07409500    0.37070100
 H                 -3.02930100    0.08864500   -1.01447100
 H                 -3.83854900   -0.71706400    0.38339700
 H                 -1.42308800   -0.81543600    0.48024700
 H                 -1.01019800    0.99839000    0.30294700
 C                 -0.10486100    1.96089300   -1.34747000
 H                 -0.88925800    2.71890500   -1.40692300
 H                  0.88092000    2.38854000   -1.58368400
 H                 -0.30100700    1.08973100   -1.98266500
 Br                 0.40390400   -1.35644200   -0.37003600

 1 2 1.0 6 2.0
 2 3 1.0 4 1.0 5 1.0
 3
 4
 5
 6
 7 15 1.0
 8 9 1.0
 9 10 1.0 11 1.0 12 1.0
 10
 11
 12
 13
 14
 15 16 1.0 17 1.0 18 1.0
 16
 17
 18
 19






