%nprocshared=8
%nprocl=1
# opt=(calcfc,ts,noeigentest) freq=noraman b3lyp/def2tzvp geom=connectivity

ts612Br def2tzvp

0 1
 C                  1.30564700    0.32445100    0.55036900
 O                  2.33318600    0.45152000   -0.03906900
 O                  0.29109500    1.53533100    0.06929000
 O                 -2.05700500    0.67971400   -0.42962200
 C                 -2.94421200    0.47880300    0.69762100
 H                 -2.47877200   -0.16790300    1.44798300
 H                 -3.13949500    1.48351900    1.08922500
 H                 -3.86890700    0.02976000    0.31461100
 H                 -0.80648700    1.17647300   -0.00946300
 H                 -1.67819000   -0.25880000   -0.73542400
 C                  0.93452500    0.17627900    1.97756400
 H                  1.26582700   -0.80830800    2.36133500
 H                  1.43431000    0.95645200    2.57947700
 H                 -0.14439800    0.24792700    2.17362700
 C                  0.64896000    2.09128000   -1.23512100
 H                 -0.07756200    2.88414900   -1.42944400
 H                  1.66719600    2.48655400   -1.12960700
 H                  0.62151700    1.29826300   -1.99259100
 Br                 0.08563500   -1.40244200   -0.38334600

 1 2 2.0 11 1.0
 2
 3 15 1.0
 4 5 1.0
 5 6 1.0 7 1.0 8 1.0
 6
 7
 8
 9
 10
 11 12 1.0 13 1.0 14 1.0
 12
 13
 14
 15 16 1.0 17 1.0 18 1.0
 16
 17
 18
 19








