%nprocshared=8
%nprocl=1
# freq=noraman b3lyp/def2tzvp geom=connectivity

ts621Br def2tzvp

0 1
 C                 -0.26711400    0.84350700   -0.63420600
 C                 -1.41979300    1.81838800   -0.73642600
 H                 -2.08662900    1.47374100   -1.52932600
 H                 -1.99146400    1.90258200    0.18874800
 H                 -1.00550500    2.79610000   -1.01168800
 O                  0.62930600    1.23094100    0.57727600
 O                  0.46163900    0.61040300   -1.61645900
 O                  2.53896600    0.12214600   -0.34292500
 C                  2.69231600   -1.27319900    0.04173600
 H                  3.18266400   -1.28493300    1.01612200
 H                  1.71415200   -1.76096300    0.09019900
 H                  3.32921100   -1.75663100   -0.70082300
 H                  1.90452500    0.19365000   -1.15343800
 H                  1.74250100    0.68562600    0.30404900
 C                  0.17481200    1.21998100    1.94338600
 H                  0.96805700    1.69185400    2.52978800
 H                 -0.73887800    1.81230100    2.02705200
 H                 -0.01746700    0.19882800    2.27661600
 Br                -1.23205100   -1.06606100    0.09521800

 1 2 1.0 7 2.0
 2 3 1.0 4 1.0 5 1.0
 3
 4
 5
 6 15 1.0
 7
 8 9 1.0
 9 10 1.0 11 1.0 12 1.0
 10
 11
 12
 13
 14
 15 16 1.0 17 1.0 18 1.0
 16
 17
 18
 19







