%nprocshared=8
%nprocl=1
# opt=(calcfc,ts,noeigentest) freq=noraman b3lyp/def2tzvp geom=connectivity

ts624Br=def2tzvp

0 1
 C                  0.33037900    0.69926400    0.53920100
 O                 -0.46974400    0.30491100    1.42788100
 O                 -0.49918500    0.73618200   -0.80575900
 O                 -1.76908300   -1.22885700    0.03526100
 C                 -3.19964100   -1.02693800    0.19232100
 H                 -3.41451600   -0.02289300    0.56853900
 H                 -3.63223200   -1.19421300   -0.80061700
 H                 -3.54918500   -1.79414500    0.89479600
 H                 -1.27435300   -0.30213500   -0.66393300
 H                 -1.09992977   -0.66442598    1.07101728
 C                  1.15357400    1.93756600    0.68817800
 H                  1.98117400    1.76351000    1.39900000
 H                  1.60989800    2.25754900   -0.26040600
 H                  0.55782000    2.76743800    1.09488500
 C                 -1.35560200    1.89806000   -0.97338200
 H                 -0.70379300    2.74557800   -1.21125200
 H                 -1.99979400    1.66881200   -1.82753700
 H                 -1.93096400    2.08522100   -0.06264600
 Br                 1.54153600   -0.81715600   -0.22985100

 1 2 2.0 11 1.0
 2
 3 15 1.0
 4 5 1.0
 5 6 1.0 7 1.0 8 1.0
 6
 7
 8
 9
 10
 11 12 1.0 13 1.0 14 1.0
 12
 13
 14
 15 16 1.0 17 1.0 18 1.0
 16
 17
 18
 19












