%nprocshared=8
%nprocl=1
# opt=(calcfc,ts,noeigentest) freq=noraman b3lyp/def2tzvp geom=connectivity

ts623Br def2tzvp

0 1
 C                  0.59547500    0.66595700    0.52842000
 C                  1.92404700    1.34772800    0.55142100
 H                  2.62318000    0.80595500    1.21368700
 H                  2.39503000    1.39075800   -0.44229200
 H                  1.83948700    2.36970900    0.94971000
 O                 -0.21379200    1.05495100   -0.76180700
 O                 -0.20957900    0.69566200    1.48766800
 O                 -2.28799400    0.19725700    0.27453600
 C                 -2.71617600   -1.17703300    0.05123200
 H                 -3.44271200   -1.40878700    0.83775200
 H                 -3.19202500   -1.17855900   -0.93534700
 H                 -1.86100400   -1.86418700    0.08270200
 H                 -1.32715775    0.33740598    1.23732751
 H                 -1.37363400    0.51444300   -0.53687800
 C                 -0.45136200    2.48288000   -0.92799100
 H                 -0.84609600    2.91293900   -0.00239700
 H                  0.50263200    2.93860600   -1.20965300
 H                 -1.17028700    2.56288600   -1.74968900
 Br                 0.90706900   -1.27943100   -0.24559500

 1 2 1.0 7 2.0
 2 3 1.0 4 1.0 5 1.0
 3
 4
 5
 6 15 1.0
 7
 8 9 1.0
 9 10 1.0 11 1.0 12 1.0
 10
 11
 12
 13
 14
 15 16 1.0 17 1.0 18 1.0
 16
 17
 18
 19







