%nprocshared=8
%nprocl=1
# opt=(calcfc,ts,noeigentest) freq=noraman b3lyp/def2tzvp geom=connectivity

ts622Br def2tzvp

0 1
 C                 -0.16430600    0.51865900   -0.71818900
 C                 -0.90380300    1.70482600   -1.25241100
 H                 -1.52276300    1.40722700   -2.11675300
 H                 -1.57229600    2.17310700   -0.51813300
 H                 -0.19343800    2.47123900   -1.60211600
 O                  0.68552100    1.01564500    0.51399500
 O                  0.70153800   -0.09879800   -1.38634500
 O                  2.23935500   -0.90320500    0.30844200
 H                  1.61630300   -1.04642400   -0.59811200
 H                  1.58262500    0.09070700    0.68579000
 C                  0.03966800    1.33796900    1.76732500
 H                  0.74645900    2.00443200    2.27424400
 H                 -0.90160800    1.85733800    1.55706600
 H                 -0.14336900    0.42509100    2.34551600
 C                  3.55731200   -0.45411000   -0.12783100
 H                  3.46355100    0.37462600   -0.83856700
 H                  4.08226700   -0.15221700    0.78454000
 H                  4.04450300   -1.32082400   -0.58969900
 Br                -1.58247900   -0.77250000    0.14611800

 1 2 1.0 7 2.0
 2 3 1.0 4 1.0 5 1.0
 3
 4
 5
 6 11 1.0
 7
 8 15 1.0
 9
 10
 11 12 1.0 13 1.0 14 1.0
 12
 13
 14
 15 16 1.0 17 1.0 18 1.0
 16
 17
 18
 19








