%nprocshared=8
%nprocl=1
# freq=noraman b3lyp/def2tzvp geom=connectivity

ts631Br def2tzvp

0 1
 O                  0.41161500   -1.59141700   -0.13106600
 O                 -1.91987600   -1.12523500    0.39736200
 H                 -0.65735300   -1.51402200    0.17243100
 H                 -1.72880800   -0.12999900    0.33100500
 C                  1.18619500   -0.77921700    0.48222800
 C                  1.14701400   -0.54263300    1.95883700
 H                  0.12338500   -0.59132300    2.33053100
 H                  1.58180300    0.42775000    2.19573200
 H                  1.73810900   -1.33775700    2.43709900
 O                  2.27801200   -0.37775100   -0.10714800
 C                 -2.83864700   -1.49624700   -0.65010100
 H                 -3.81485700   -1.04953800   -0.44333700
 H                 -2.47150100   -1.15571200   -1.62413200
 H                 -2.92343900   -2.58467300   -0.63651800
 C                  2.35201700   -0.48013800   -1.55317800
 H                  3.32116100   -0.05557400   -1.81034600
 H                  2.28304600   -1.52416800   -1.86316500
 H                  1.53577500    0.11202200   -1.97421700
 Br                -0.46356600    1.54136100   -0.05185700

 1 5 2.0
 2 4 1.0 11 1.0
 3
 4
 5 6 1.0 10 1.5
 6 7 1.0 8 1.0 9 1.0
 7
 8
 9
 10 15 1.0
 11 12 1.0 13 1.0 14 1.0
 12
 13
 14
 15 16 1.0 17 1.0 18 1.0
 16
 17
 18
 19








