%chk=C:\Users\214584429\Desktop\Test 2\h2o.chk
# opt freq x3lyp/6-31+g(d) geom=connectivity

Title Card Required

0 1
 O                  0.11594203    0.97101448    0.00000000
 H                  1.07594203    0.97101448    0.00000000
 H                 -0.20451256    1.87595031    0.00000000

 1 2 1.0 3 1.0
 2
 3

