%mem=600MB
%nprocshared=5
# freq x3lyp/6-31+g(d) scrf=(cpcm,solvent=methanol) geom=connectivity

Title Card Required

0 1
 O                  0.00000000    0.00000000    0.11715500
 H                  0.00000000    0.77120600   -0.46862100
 H                  0.00000000   -0.77120600   -0.46862100

 1 2 1.0 3 1.0
 2
 3

