%chk=C:\Users\214584429\Dropbox\Dropbox content\New folder\HACHsmdopt.chk
# opt x3lyp/6-31+g(d) scrf=(solvent=methanol,smd) geom=connectivity

hach opt smd

1 1
 O                  0.85199800   -1.02793800    0.00003100
 H                  0.38452200   -1.88634600    0.00015900
 C                  0.08096200   -0.00276200   -0.00015600
 C                 -1.40502600   -0.06533000   -0.00008300
 H                 -1.79311200    0.45685800   -0.88445500
 H                 -1.77344500   -1.09304400   -0.00559700
 H                 -1.79191500    0.44652400    0.89094800
 O                  0.73971600    1.10032400   -0.00006000
 H                  0.18462700    1.90547200    0.00061400

 1 2 1.0 3 2.0
 2
 3 4 1.0 8 2.0
 4 5 1.0 6 1.0 7 1.0
 5
 6
 7
 8 9 1.0
 9

