%chk=C:\Users\214584429\Dropbox\Dropbox content\New folder\HACHsmd.chk
# x3lyp/6-31+g(d) scrf=(solvent=methanol,smd) geom=connectivity

hach smd

1 1
 O                  0.82954100   -1.04457400    0.00002800
 H                  0.32061500   -1.88229300   -0.00045500
 C                  0.07981200   -0.00174800    0.00006100
 C                 -1.39680200   -0.04699700   -0.00007800
 H                 -1.76438400    0.48883800   -0.88374300
 H                 -1.75786000   -1.07542200   -0.00447700
 H                 -1.76342600    0.48065100    0.88900700
 O                  0.75496700    1.09284500   -0.00001600
 H                  0.19093600    1.89452600   -0.00032400

 1 2 1.0 3 2.0
 2
 3 4 1.0 8 2.0
 4 5 1.0 6 1.0 7 1.0
 5
 6
 7
 8 9 1.0
 9

