%chk=C:\Users\214584429\Dropbox\Dropbox content\New folder\HACh.chk
# opt freq x3lyp/6-31+g(d) geom=connectivity

Title Card Required

1 1
 O                  0.99137927    0.68965516    0.00000000
 H                  0.67092468    1.58452201   -0.13461867
 C                  2.42137927    0.68965516    0.00000000
 C                  3.18873644    2.02485664    0.00000000
 H                  3.79938949    2.08527986   -0.87655684
 H                  2.49182350    2.83675457    0.00584033
 H                  3.80815987    2.08024000    0.87071654
 O                  3.05489100   -0.39765043    0.00000000
 H                  3.99802548   -0.21849311    0.00000000

 1 2 1.0 3 1.0
 2
 3 4 1.0 8 2.0
 4 5 1.0 6 1.0 7 1.0
 5
 6
 7
 8 9 1.0
 9

