%chk=C:\Users\214584429\Dropbox\Dropbox content\New folder\meohhcpcm.chk
# freq x3lyp/6-31+g(d) scrf=(cpcm,solvent=methanol) geom=connectivity

Title Card Required

1 1
 O                  0.71955000    0.00000500   -0.08942300
 H                  1.15562700   -0.80306100    0.27151500
 C                 -0.79896900   -0.00000600    0.01887900
 H                 -1.10469800    0.90145900   -0.50759700
 H                 -1.10458400   -0.90119800   -0.50811700
 H                 -1.06457700   -0.00028200    1.07483000
 H                  1.15564600    0.80307900    0.27147300

 1 2 1.0 7 1.0
 2
 3 4 1.0 5 1.0 6 1.0
 4
 5
 6
 7

