%mem=600MB
%nprocshared=5
# opt freq x3lyp/6-31+g(d) geom=connectivity

Title Card Required

1 1
 C                 -2.89950244   -1.79762507    0.05683981
 H                 -2.96440613   -2.82923858    0.33335577
 H                 -2.47634625   -1.71684220   -0.92260542
 H                 -3.87834341   -1.36546232    0.05923102
 C                 -2.00631904   -1.05113109    1.06509085
 O                 -2.23938793    0.33291985    1.33891905
 C                 -1.84625056    0.62584215    2.68225055
 H                 -0.80580302    0.40828157    2.80487320
 H                 -2.02064477    1.66146068    2.88714298
 H                 -2.41813818    0.02696380    3.35988562
 O                 -1.07135999   -1.65910370    1.64800717
 H                 -0.51456944   -1.19375644    2.27652623

 1 2 1.0 3 1.0 4 1.0 5 1.0
 2
 3
 4
 5 6 1.0 11 2.0
 6 7 1.0
 7 8 1.0 9 1.0 10 1.0
 8
 9
 10
 11 12 1.0
 12

