%chk=C:\Users\214584429\Google Drive\214584429 MONSURAT\Silva-2014remix\meohac-h30.chk
# opt=(calcfc,ts,noeigentest) freq=noraman pm6 geom=connectivity

Title Card Required

1 1
 C                 -3.94636162   -0.36661214   -0.08272452
 H                 -3.58677913   -1.37429155   -0.09623909
 H                 -3.59337540    0.14971626   -0.95088678
 H                 -5.01635369   -0.36974119   -0.08004621
 C                 -3.43193906    0.34506880    1.18237613
 O                 -3.77295770    1.69098419    1.42797347
 O                 -2.51888669   -0.43563348    2.20865062
 C                 -2.48434968   -0.03738990    3.58164343
 H                 -2.00665739   -0.79891024    4.16198544
 H                 -1.93710226    0.87742673    3.67400570
 H                 -3.48344706    0.10730014    3.93628298
 O                 -4.64747578    3.91994222    2.33002431
 H                 -4.19116074    4.73949913    2.53423757
 H                 -5.15095834    3.46826798    3.01127001
 H                 -4.19137042    3.34235615    1.72930622

 1 2 1.0 3 1.0 4 1.0 5 1.0
 2
 3
 4
 5 6 1.5 7 1.0
 6 15 0.5
 7 8 1.0
 8 9 1.0 10 1.0 11 1.0
 9
 10
 11
 12 13 1.0 14 1.0 15 1.0
 13
 14
 15

