%chk=C:\Users\214584429\Google Drive\214584429 MONSURAT\Silva-2014remix\meohac-h30allf.chk
# freq=noraman x3lyp/6-31+g(d) geom=connectivity

Title Card Required

1 1
 C                 -0.57739800   -1.92391000   -1.49254000
 H                  0.48510200   -1.80403800   -1.77512000
 H                 -1.18047100   -1.74636000   -2.40194500
 H                 -0.70374800   -2.99346600   -1.22948000
 C                 -0.96643600   -1.01888300   -0.39117600
 O                 -1.53106200    0.06946600   -0.46751000
 O                 -0.54057800   -1.50269300    0.80954800
 C                 -0.93479000   -0.79169800    2.01942500
 H                 -0.33215200   -1.29094400    2.79135200
 H                 -0.70258100    0.27389600    1.93276900
 H                 -2.00436400   -0.95984300    2.19456000
 O                 -1.56089800    2.34906500   -0.76610400
 H                 -2.29956500    2.02419600   -0.16208400
 H                 -1.64620700    1.69290300   -1.53774200
 H                 -0.55054600    1.88778600   -0.15461800
 C                  3.33343600    0.06546700   -0.23955400
 H                  3.53658900    0.73987800   -1.08266300
 H                  3.76104900   -0.92624000   -0.43906700
 H                  3.70259400    0.47244200    0.70717800
 O                  1.88308300   -0.04789800   -0.21154000
 H                  1.61105300   -0.70453900    0.48948700
 O                  0.40796500    1.80316000    0.67509100
 H                  1.20374600    1.25496500    0.19613800
 H                  0.72255200    2.72471000    0.77842100

 1 2 1.0 3 1.0 4 1.0 5 1.0
 2
 3
 4
 5 6 2.0 7 1.0
 6
 7 8 1.0
 8 9 1.0 10 1.0 11 1.0
 9
 10
 11
 12 13 1.0 14 1.0
 13
 14
 15
 16 17 1.0 18 1.0 19 1.0 20 1.0
 17
 18
 19
 20 21 1.0
 21
 22 24 1.0
 23
 24

