%mem=600MB
%nprocshared=5
# x3lyp/6-31+g(d) scrf=(solvent=methanol,smd) geom=connectivity

Title Card Required

1 1
 C                  1.80653900   -0.58257300   -0.00044100
 H                  2.41552600   -0.14973700    0.80096700
 H                  2.30434000   -0.34300100   -0.94935600
 H                  1.72282200   -1.66307200    0.11387800
 C                  0.46795800    0.04552200    0.00475300
 O                 -0.56615100   -0.70550500    0.00508700
 C                 -1.94326900   -0.18878800   -0.00331800
 H                 -2.10750900    0.38513200   -0.91861300
 H                 -2.56289900   -1.08249600   -0.00228300
 H                 -2.11543300    0.39261200    0.90577700
 O                  0.41968200    1.33976700    0.00114200
 H                 -0.47246700    1.74149700   -0.00616500

 1 2 1.0 3 1.0 4 1.0 5 1.0
 2
 3
 4
 5 6 2.0 11 1.5
 6 7 1.0
 7 8 1.0 9 1.0 10 1.0
 8
 9
 10
 11 12 1.0
 12

