%chk=C:\Users\214584429\Google Drive\214584429 MONSURAT\Silva-2014remix\MEOHAC-H30opt.chk
# opt=(ts,modredundant,noeigentest) pm6 geom=connectivity

Title Card Required

1 1
 C                 -1.81219606    0.51355493   -2.47348296
 H                 -1.19774973   -0.36218796   -2.45274379
 H                 -1.86045987    0.89179775   -3.47323441
 H                 -2.79756162    0.26592466   -2.13787313
 C                 -1.20888556    1.58598494   -1.54746444
 O                 -1.84158474    2.83794609   -1.40468828
 O                  0.12365102    1.28232121   -0.75466267
 C                  0.40160246    1.97152173    0.46707611
 H                  1.21043631    1.48758201    0.97352467
 H                  0.67062662    2.98454436    0.25187585
 H                 -0.46827803    1.95813408    1.08999560
 O                 -2.59395513    4.36606525   -0.45524652
 H                 -3.45134293    4.61916992   -0.80513822
 H                 -2.53704485    3.87985577    0.37056313
 H                 -1.90029667    5.00176178   -0.58650145
 C                  0.92697169   -0.71516253    2.15143906
 H                  0.65787795   -1.58958988    2.70629524
 H                  0.68210061    0.15748988    2.72013576
 H                  1.97833436   -0.72816799    1.95302690
 O                  0.20876688   -0.69540979    0.91503635
 H                  0.44857999    0.08987466    0.41762505
 O                 -1.84512756    0.88317181    0.14559120
 H                 -1.42854394    0.16871853    0.63304847
 H                 -2.32109225    1.45205309    0.75504317

 1 2 1.0 3 1.0 4 1.0 5 1.0
 2
 3
 4
 5 6 1.5 7 1.0
 6
 7 8 1.0
 8 9 1.0 10 1.0 11 1.0
 9
 10
 11
 12 13 1.0 14 1.0 15 1.0
 13
 14
 15
 16 17 1.0 18 1.0 19 1.0 20 1.0
 17
 18
 19
 20 21 1.0
 21
 22 23 1.0 24 1.0
 23
 24

A 5 6 12 F
B 14 12 F
B 12 15 F
B 12 13 F
B 22 20 F
B 20 7 F

