%nprocshared=8
%nprocl=1
# freq=noraman m062x/def2tzvp geom=connectivity

ts611oh hcl s9

0 1
 H                 -1.14229900   -0.78878400   -0.58641500
 C                 -1.01537800    1.78995500   -0.61097300
 H                 -0.77988700    2.76336000   -0.18437600
 H                 -1.13186500    1.87036500   -1.69207500
 H                 -1.95440700    1.39679600   -0.22407300
 C                  0.09138200    0.80731100   -0.31219900
 O                 -0.08250500   -0.43133100   -0.78271100
 O                  2.57389100   -0.40893300    0.25111900
 H                  2.16444100    0.29015400   -0.53146900
 C                 -0.55316000    0.45748900    1.97116800
 H                 -1.06426200   -0.45209900    1.65067600
 H                 -0.07179700    0.31575700    2.93564400
 H                 -1.27570200    1.26957500    2.04685400
 O                  0.49083400    0.80764600    1.05697100
 H                  1.80816000   -0.24447100    0.90455100
 O                  1.35650100    1.29584000   -0.91867200
 H                  1.18263700    1.45432900   -1.85492300
 Cl                -2.79166100   -1.12873400   -0.22766000
 C                  2.64261500   -1.79650700   -0.16173500
 H                  3.44327400   -1.86300900   -0.89193100
 H                  2.89091200   -2.38783100    0.71487000
 H                  1.68649900   -2.09092100   -0.58833300

 1
 2 3 1.0 4 1.0 5 1.0 6 1.0
 3
 4
 5
 6 7 1.5 14 1.0 16 1.0
 7
 8 19 1.0
 9
 10 11 1.0 12 1.0 13 1.0 14 1.0
 11
 12
 13
 14
 15
 16 17 1.0
 17
 18
 19 20 1.0 21 1.0 22 1.0
 20
 21
 22

