%chk=C:\Users\214584429\Google Drive\214584429 MONSURAT\Silva-2014remix\TSB-4smd.chk
# freq x3lyp/6-31+g(d) geom=connectivity

opt step 7

1 1
 C                  0.27621500    2.02405900   -0.19873400
 H                  1.25280700    2.51141900   -0.23373700
 H                 -0.11416200    2.03361100    0.82432000
 H                 -0.41826400    2.54196200   -0.86236500
 C                  1.49752400   -1.39382700   -0.89671500
 H                  0.60268300   -1.83879700   -1.34152700
 H                  2.03116700   -2.16826800   -0.33718200
 H                  2.13881200   -1.00902600   -1.69418500
 C                  1.10468600   -0.26478300    0.03473800
 O                  2.17006600    0.37433000    0.66059700
 H                  2.94088000   -0.21877200    0.69518500
 O                 -1.95488200   -0.62206900   -0.25798700
 H                 -1.41376000   -0.01618000   -0.83611800
 O                  0.36465800    0.67843100   -0.71493100
 H                 -1.29570600   -0.75168100    0.50938100
 O                  0.24474000   -0.81901700    1.06049600
 H                  0.40242300   -0.33679300    1.89369600
 C                 -3.23880700   -0.02102900    0.16689500
 H                 -3.69607200   -0.74403100    0.83897700
 H                 -3.04021400    0.92973700    0.66169900
 H                 -3.82496700    0.10690500   -0.74065300

 1 2 1.0 3 1.0 4 1.0 14 1.0
 2
 3
 4
 5 6 1.0 7 1.0 8 1.0 9 1.0
 6
 7
 8
 9 10 1.0 14 1.0 16 1.0
 10 11 1.0
 11
 12 13 1.0 18 1.0
 13
 14
 15
 16 17 1.0
 17
 18 19 1.0 20 1.0 21 1.0
 19
 20
 21

