# opt=maxcycle=15 freq x3lyp/6-31+g(d) geom=connectivity

rxt

1 1
 C                 -2.49532000    0.23042300    0.17170200
 H                 -2.80266800    0.60073200   -0.81000800
 H                 -2.55694900    1.02889100    0.91270100
 H                 -3.18016700   -0.57364300    0.45475400
 C                 -1.09758500   -0.33962400    0.04841800
 O                 -0.19329300    0.73222900   -0.54530800
 O                 -0.37872900   -0.66456300    1.22678800
 H                 -0.90961900   -1.25343500    1.79316700
 O                 -1.11663800   -1.34826300   -0.85704200
 H                 -0.28731500   -1.86151600   -0.85459600
 C                 -0.13142600    2.04864700    0.10964400
 H                  0.71597800    2.55871900   -0.34763000
 H                 -1.05322900    2.57686800   -0.12300400
 H                  0.00958900    1.91940100    1.18353500
 H                  0.79004300    0.28513700   -0.51595500
 C                  3.21397700    0.04803700   -0.02315600
 H                  3.44485500    0.59624300   -0.93583000
 H                  3.92977800   -0.76482000    0.10924800
 H                  3.22627900    0.71739000    0.84135000
 O                  1.88680600   -0.51902000   -0.20167900
 H                  1.59936700   -0.93513700    0.63270400

 1 2 1.0 3 1.0 4 1.0 5 1.0
 2
 3
 4
 5 7 1.0 9 1.0
 6 11 1.0
 7 8 1.0
 8
 9 10 1.0
 10
 11 12 1.0 13 1.0 14 1.0
 12
 13
 14
 15
 16 17 1.0 18 1.0 19 1.0 20 1.0
 17
 18
 19
 20 21 1.0
 21

