# opt=maxcycle=15 x3lyp/6-31+g(d) geom=connectivity

Title Card Required

1 1
 C                 -2.54609400    0.25786000    0.10869000
 H                 -2.89201600    0.66626600   -0.86187900
 H                 -2.60437100    1.04141500    0.86317000
 H                 -3.21932100   -0.55084100    0.40251000
 C                 -1.16577900   -0.30972700   -0.00728600
 O                 -0.21231600    0.73939500   -0.56379100
 O                 -0.23009500   -0.70120600    1.36700200
 H                 -0.68002500   -1.43187700    1.88843800
 O                 -1.12159700   -1.34201600   -0.90185300
 H                 -0.36887900   -1.91544900   -0.67928700
 C                 -0.12539300    2.04059300    0.10672600
 H                  0.73099200    2.54248500   -0.34204500
 H                 -1.03894600    2.58941400   -0.10812900
 H                  0.01872700    1.88327300    1.17799400
 H                  0.75466300    0.27938800   -0.54010800
 C                  3.19012200    0.04518900   -0.00885600
 H                  3.42860100    0.62078900   -0.90426100
 H                  3.91532200   -0.76395500    0.11682500
 H                  3.19910000    0.69667900    0.87034700
 O                  1.87631600   -0.52256800   -0.21092600
 H                  1.50502800   -0.88886400    0.65677500

 1 2 1.0 3 1.0 4 1.0 5 1.0
 2
 3
 4
 5 9 1.0
 6 11 1.0
 7 8 1.0
 8
 9 10 1.0
 10
 11 12 1.0 13 1.0 14 1.0
 12
 13
 14
 15
 16 17 1.0 18 1.0 19 1.0 20 1.0
 17
 18
 19
 20 21 1.0
 21

