%nprocshared=8
%nprocl=1
# opt=(calcfc,ts,noeigentest,maxcycle=50) x3lyp/6-31+g(d)
scrf=(cpcm,solvent=methanol) geom=connectivity

ts4 cpcm opt

1 1
 C                  1.62024972   -1.40343713   -0.90812065
 H                  0.99252172   -2.31670213   -0.87031065
 H                  2.65224072   -1.74292113   -0.71653965
 H                  1.59432672   -1.05312913   -1.95967265
 C                  1.15723972   -0.34871613    0.04028135
 O                  2.02612672    0.27712987    0.91054635
 H                  2.92028172   -0.15777313    0.99734735
 O                 -1.94610800   -0.53312700   -0.37404900
 H                 -1.49474400    0.20100800   -0.93900600
 O                  0.24601828    0.72288113   -0.65703835
 H                 -1.07928300   -0.69705100    0.49339700
 O                  0.16561372   -1.01452913    0.97270635
 H                  0.22783872   -0.62408213    1.89305335
 C                 -3.17852600    0.00651600    0.22398000
 H                 -3.57049300   -0.82202600    0.83486700
 H                 -2.97601900    0.90139400    0.81741100
 H                 -3.86706500    0.21377000   -0.60988800
 C                  0.53730810    0.64880697   -2.05509531
 H                  1.59602229    0.69838220   -2.20195088
 H                  0.16549209   -0.27417944   -2.44847674
 H                  0.06836793    1.46679207   -2.56095644

 1 2 1.0 3 1.0 4 1.0 5 1.0
 2
 3
 4
 5 6 1.0 10 1.0 12 1.0
 6 7 1.0
 7
 8 14 1.0
 9
 10 18 1.0
 11
 12 13 1.0
 13
 14 15 1.0 16 1.0 17 1.0
 15
 16
 17
 18 19 1.0 20 1.0 21 1.0
 19
 20
 21

