%chk=C:\Users\214584429\Google Drive\214584429 MONSURAT\Silva-2014remix\tsb-4opt.chk
# opt=(calcfc,ts,noeigentest) freq=noraman x3lyp/6-31+g(d)
geom=connectivity

Title Card Required

1 1
 C                  0.46257800    2.06711400   -0.24055400
 H                  1.52099500    2.35059300   -0.32465600
 H                  0.09660000    2.22390900    0.77646800
 H                 -0.13863300    2.58644500   -0.99953500
 C                  1.57300900   -1.34788200   -0.94427200
 H                  0.94528100   -2.26114700   -0.90646200
 H                  2.60500000   -1.68736600   -0.75269100
 H                  1.54708600   -0.99757400   -1.99582400
 C                  1.10999900   -0.29316100    0.00413000
 O                  1.97888600    0.33268500    0.87439500
 H                  2.87304100   -0.10221800    0.96119600
 O                 -1.94610800   -0.53312700   -0.37404900
 H                 -1.49474400    0.20100800   -0.93900600
 O                  0.29325900    0.66732600   -0.62088700
 H                 -1.07928300   -0.69705100    0.49339700
 O                  0.11837300   -0.95897400    0.93655500
 H                  0.18059800   -0.56852700    1.85690200
 C                 -3.17852600    0.00651600    0.22398000
 H                 -3.57049300   -0.82202600    0.83486700
 H                 -2.97601900    0.90139400    0.81741100
 H                 -3.86706500    0.21377000   -0.60988800

 1 2 1.0 3 1.0 4 1.0 14 1.0
 2
 3
 4
 5 6 1.0 7 1.0 8 1.0 9 1.0
 6
 7
 8
 9 10 1.0 14 1.0 16 1.0
 10 11 1.0
 11
 12 18 1.0
 13
 14
 15
 16 17 1.0
 17
 18 19 1.0 20 1.0 21 1.0
 19
 20
 21

