%chk=C:\Users\214584429\Google Drive\214584429 MONSURAT\Silva-2014remix\TSB-4smdopt.chk
# opt=(calcfc,ts,noeigentest,maxcycle=20) x3lyp/6-31+g(d)
scrf=(solvent=methanol,smd) geom=connectivity

tsb-4smd

1 1
 C                  0.63470400    2.08334200   -0.16158400
 H                  1.69151600    2.34508600   -0.20606600
 H                  0.26538700    2.19515100    0.86308600
 H                  0.06426200    2.71710500   -0.84074700
 C                  1.39852700   -1.42302500   -0.96286100
 H                  0.49972800   -1.74655900   -1.49431300
 H                  1.81416400   -2.28888300   -0.43928400
 H                  2.11550500   -1.04548200   -1.69661400
 C                  1.06489600   -0.32315800    0.02333600
 O                  2.11727400    0.14869700    0.77315200
 H                  2.86206200   -0.47459700    0.76724100
 O                 -1.97727000   -0.40888900   -0.31375500
 H                 -1.47139500    0.27500700   -0.82210400
 O                  0.43006200    0.73218100   -0.65119700
 H                 -1.25010400   -0.68782400    0.41401800
 O                  0.07243800   -0.88047500    0.98170500
 H                  0.27835700   -0.54333300    1.87323700
 C                 -3.30053600    0.02861800    0.17423900
 H                 -3.71379900   -0.82542500    0.70720200
 H                 -3.18553400    0.89659700    0.82455200
 H                 -3.89572000    0.25638600   -0.70822300

 1 2 1.0 3 1.0 4 1.0 14 1.0
 2
 3
 4
 5 6 1.0 7 1.0 8 1.0 9 1.0
 6
 7
 8
 9 10 1.0 14 1.0 16 1.0
 10 11 1.0
 11
 12 13 1.0 18 1.0
 13
 14
 15
 16 17 1.0
 17
 18 19 1.0 20 1.0 21 1.0
 19
 20
 21

