%chk=C:\Users\LawalM\Desktop\CH3F\OPF131.chk
# opt=(calcfc,ts,noeigentest) freq=noraman uhf/6-31g(d) geom=connectivity

Title Card Required

-1 1
 C                 -0.03826300   -0.02689200    0.00000100
 H                 -0.04458700    1.03476400   -0.00011900
 H                 -0.05559000   -0.55634400    0.91868200
 F                 -1.93767800    0.02026100    0.00000000
 O                  1.95057200   -0.09496900   -0.00000100
 H                  2.21987100    0.81688300    0.00000500
 H                 -0.05558600   -0.55654500   -0.91856300

 1 2 1.0 3 1.0 7 1.0
 2
 3
 4
 5 6 1.0
 6
 7

