%chk=C:\Users\LawalM\Desktop\CH3F\OPF1.chk
# opt=(calcfc,ts,noeigentest) freq=noraman uhf/6-31g(d) geom=connectivity

Title Card Required

-1 1
 C                 -2.70764115    1.31229234    0.00000000
 H                 -2.75533492    2.24633760   -0.51979300
 H                 -3.71326503    1.41655861    0.35035575
 F                 -3.15765328    0.67590622   -1.10227119
 O                 -2.23096624    1.98639460    1.16759033
 H                 -2.55072752    2.89157555    1.16800804
 H                 -2.09562082    0.46746263    0.23789468

 1 2 0.5 3 1.0 4 0.5 5 0.5 7 1.0
 2
 3
 4
 5 6 1.0
 6
 7

