%chk=C:\Users\LawalM\Desktop\CH3F\SCAN1.chk
# opt=(modredundant,ts,noeigentest) uhf/6-31g(d) geom=connectivity

Title Card Required

-1 1
 C                 -2.70764115    1.31229234    0.00000000
 H                 -2.75533492    2.24633760   -0.51979300
 H                 -3.71326503    1.41655861    0.35035575
 F                 -3.26765625    0.52034517   -1.37171526
 O                 -2.04429634    2.25037870    1.62482850
 H                 -2.36405762    3.15555965    1.62524621
 H                 -2.09562082    0.46746263    0.23789468

 1 2 0.5 3 1.0 4 0.5 5 0.5 7 1.0
 2
 3
 4
 5 6 1.0
 6
 7

B 5 1 S 11 -0.010000
B 1 4 S 11 0.020000

