%chk=C:\Users\LawalM\Desktop\ACID CAT\cl6.chk
# opt=(calcfc,ts,noeigentest) freq=noraman pm6 geom=connectivity

Title Card Required

0 1
 C                 -1.17975176   -1.70616880    0.37585293
 H                 -0.19984598   -2.09867768    0.20086308
 H                 -1.61120735   -1.39683913   -0.55315795
 H                 -1.79292025   -2.46249075    0.81958880
 C                 -1.08660521   -0.49791509    1.32614062
 O                 -2.30275436    0.22457154    1.72600851
 O                  0.18731708   -0.07734885    1.82126287
 H                  0.53195795    0.62431372    1.26404450
 Cl                -4.30205421    1.34856543    3.42212603
 H                 -3.16311060   -0.17045857    2.57255346

 1 2 1.0 3 1.0 4 1.0 5 1.0
 2
 3
 4
 5 6 1.0 7 1.0
 6
 7 8 1.0
 8
 9 10 1.0
 10

