%chk=C:\Users\LawalM\Desktop\ACID CAT\H2O1ir.chk
# irc=calcfc pm6 nosymm geom=connectivity

Title Card Required

0 2
 C                 -1.75851400   -1.01666300   -0.15436500
 H                 -2.68310700   -0.58361300   -0.56927400
 H                 -2.03035400   -1.58647400    0.74802200
 H                 -1.36330200   -1.73565900   -0.88868300
 C                 -0.75249700    0.02306700    0.16502200
 O                  0.40809600   -0.10154400    0.55284700
 O                 -1.21268600    1.27826400   -0.18150300
 H                 -0.55086300    1.98685300    0.01114900
 O                  2.60807000   -0.10516500   -0.30869100
 H                  2.34921900    0.66500500    0.33896500
 H                  3.32333400   -0.66753700    0.17807300
 H                  1.59330100   -0.68944300   -0.38341000

 1 2 1.0 3 1.0 4 1.0 5 1.0
 2
 3
 4
 5 6 2.0 7 1.0
 6
 7 8 1.0
 8
 9
 10
 11
 12

