%chk=C:\Users\LawalM\Desktop\ACID CAT\h2o2.chk
# opt=(calcfc,ts,noeigentest) freq=noraman upm6 geom=connectivity

Title Card Required

0 2
 C                  0.52781303    0.30612244    0.00000000
 H                 -1.41999772   -0.57236169    0.00040709
 C                  0.86689511    0.06218202    1.28375092
 H                  0.93233026   -0.85575703    1.84899967
 H                  1.76909378    0.41676602    1.31850333
 H                  0.31444320    0.71522949    1.92657743
 O                  1.14489853   -0.76287591   -0.52158221
 O                  1.24572683    1.69111333   -0.00006802
 O                 -0.87023872    0.37995531   -0.00004291
 O                 -0.86712797    2.72230444   -0.00167800
 C                 -1.50149263    3.39043776   -0.97470386
 H                 -1.31498401    4.42956700   -0.84641387
 H                 -1.12495957    3.05797902   -1.91210847
 H                 -2.54267467    3.18736004   -0.89898902
 H                 -1.54215896    1.55318844   -0.00071422
 H                  0.44287195    2.72237770   -0.00122813
 C                  2.00493647    2.03080681   -1.07608338
 H                  2.16321105    3.08902403   -1.08113272
 H                  2.94844475    1.52932048   -1.01948315
 H                  1.50047271    1.74133464   -1.97420484
 O                  2.45721215   -1.65058452   -2.28801136
 H                  3.40506967   -1.59922252   -2.14473521
 H                  1.92406130   -0.85263054   -2.26311874
 H                  2.04250545   -2.49990048   -2.45618014

 1 3 1.0 7 2.0 9 1.0
 2 9 1.0
 3 4 1.0 5 1.0 6 1.0
 4
 5
 6
 7
 8 16 1.0 17 1.0
 9
 10 11 1.0 15 1.0
 11 12 1.0 13 1.0 14 1.0
 12
 13
 14
 15
 16
 17 18 1.0 19 1.0 20 1.0
 18
 19
 20
 21 22 1.0 23 1.0 24 1.0
 22
 23
 24

