%chk=C:\Users\214584429\Google Drive\214584429 MONSURAT\ACID CAT\hcl1ts611f.chk
# opt=(calcfc,ts,noeigentest) freq=noraman pm6 geom=connectivity

Title Card Required

0 1
 H                  0.36790400   -1.90902400   -0.05827500
 C                 -2.73551400    0.28605300   -0.51151200
 H                 -3.17123300    0.73656200    0.39311600
 H                 -2.72975500    1.05344800   -1.29948300
 H                 -3.40036200   -0.52900900   -0.83888100
 C                 -1.36167800   -0.25633200   -0.24532000
 O                 -1.08406600   -1.47231600   -0.06291800
 O                  0.69194000    2.11962500   -0.28292100
 H                  0.31012300    1.37532300   -1.09199600
 C                 -0.29897500   -0.10978000    2.05098100
 H                 -0.82381500   -1.07183000    2.14873800
 H                  0.77140500   -0.27624400    1.90664300
 H                 -0.51004900    0.53815100    2.90770800
 O                 -0.84584000    0.61323000    0.91883100
 H                  0.06304700    1.56082400    0.54873200
 Cl                 1.71768000   -1.76727500   -0.23149200
 C                  2.11506300    1.90238300   -0.05409600
 H                  2.37834100    2.52146600    0.81083000
 H                  2.33100200    0.84294100    0.12775800
 H                  2.62476100    2.26222300   -0.95622400
 F                 -0.49141800    0.29126800   -1.37117100

 1
 2 3 1.0 4 1.0 5 1.0 6 1.0
 3
 4
 5
 6 7 2.0
 7
 8 17 1.0
 9
 10 11 1.0 12 1.0 13 1.0 14 1.0
 11
 12
 13
 14
 15
 16
 17 18 1.0 19 1.0 20 1.0
 18
 19
 20
 21

