%chk=C:\Users\LawalM\Desktop\ACID CAT\hcl1ts611cla.chk
# opt=(calcfc,ts,noeigentest) freq=noraman pm6 geom=connectivity

Title Card Required

0 1
 H                 -1.42759400   -0.47283000   -0.69313200
 C                 -0.97200300    2.06235400    0.18972800
 H                 -0.46120400    2.83454300    0.78414800
 H                 -1.39414800    2.53811600   -0.71074900
 H                 -1.85250800    1.71070100    0.76874000
 C                 -0.07505000    0.91729900   -0.14571500
 O                 -0.47309300   -0.10860000   -0.88771800
 O                  2.72663300   -0.23687700   -0.06463500
 H                  1.94474000    0.33111100   -0.90394100
 C                 -0.18802700   -0.44012300    1.92896600
 H                 -0.01396300   -1.48752800    1.65941500
 H                  0.16975400   -0.19298500    2.93361700
 H                 -1.25745100   -0.21151500    1.80986000
 O                  0.62571600    0.39855600    1.05949800
 H                  1.96818900   -0.11296000    0.74845800
 O                  1.16927400    1.41517000   -0.84699800
 H                  0.94075100    1.63078500   -1.78937300
 Cl                -2.86597000   -1.04114900   -0.38276500
 C                  2.78040700   -1.65366300   -0.41818500
 H                  3.07820200   -1.70353000   -1.47141800
 H                  3.55778900   -2.08966600    0.22164000
 H                  1.80872300   -2.13591100   -0.26020900

 1
 2 3 1.0 4 1.0 5 1.0 6 1.0
 3
 4
 5
 6 7 1.5 14 1.0 16 1.0
 7
 8 19 1.0
 9
 10 11 1.0 12 1.0 13 1.0 14 1.0
 11
 12
 13
 14
 15
 16 17 1.0
 17
 18
 19 20 1.0 21 1.0 22 1.0
 20
 21
 22

