%chk=C:\Users\LawalM\Desktop\ACID CAT\hcl1ts41.chk
# opt=(calcfc,ts,noeigentest) freq=noraman pm6 geom=connectivity

Title Card Required

0 1
 C                  2.53854000   -0.53531800   -0.28288900
 H                  2.79441300   -1.46934700   -0.80953300
 H                  3.02976600    0.29720700   -0.81217100
 H                  2.97489400   -0.58841400    0.72761000
 C                  1.06299300   -0.34550200   -0.25089700
 O                  0.22722300   -0.54941800   -1.13534600
 C                 -0.12972000    1.96465400   -0.08877800
 H                 -1.00355100    2.01147100    0.56573200
 H                  0.38474500    2.93077500   -0.14410100
 H                 -0.41367100    1.61598400   -1.09243600
 O                  0.85044700    1.06553900    0.48073500
 H                  0.38206600    0.33011400    1.47429700
 O                  0.58085000   -0.93415600    1.14100200
 H                 -0.29924000   -1.37568600    1.06937200
 Cl                -2.38547700   -0.37493800   -0.01391300
 H                 -1.39535400   -0.53688200   -0.89798900

 1 2 1.0 3 1.0 4 1.0 5 1.0
 2
 3
 4
 5 6 2.0
 6
 7 8 1.0 9 1.0 10 1.0 11 1.0
 8
 9
 10
 11
 12
 13 14 1.0
 14
 15 16 1.0
 16

