# opt freq b3lyp/midix geom=connectivity

BrAc=dgdzvp

0 1
 C                  1.01120600    0.23761400    0.00018000
 C                  1.72255600   -1.06187300   -0.00002800
 H                  1.46580800   -1.67485100    0.88250000
 H                  1.46445300   -1.67517000   -0.88197200
 H                  2.81725000   -0.92327900   -0.00081400
 O                  1.46700800    1.33295600   -0.00005500
 Br                -0.96817600   -0.04128000   -0.00000500

 1 2 1.0 6 2.0 7 1.0
 2 3 1.0 4 1.0 5 1.0
 3
 4
 5
 6
 7

