%nprocshared=8
%nprocl=1
# opt freq b3lyp/6-31+g(d) geom=connectivity

int622cl

0 1
 C                  0.26673700   -1.10719300    1.30221700
 H                 -0.31308600   -2.04356500    1.31134500
 H                 -0.10368600   -0.46022100    2.10888500
 H                  1.31029400   -1.36905300    1.54977900
 C                  0.19395900   -0.44753200   -0.04514700
 O                 -1.07578800   -0.29712500   -0.63995000
 O                  0.91735600   -1.18122800   -0.97527900
 C                 -2.06374000    0.48415800    0.06561700
 H                 -1.72734400    1.52270800    0.16398500
 H                 -2.93046200    0.41752400   -0.60587500
 H                 -2.28195100    0.03305100    1.03689200
 H                  0.71483300   -0.89176300   -1.90642700
 Cl                 0.95394800    1.23773800    0.07806600

 1 2 1.0 3 1.0 4 1.0 5 1.0
 2
 3
 4
 5 6 1.0 7 1.0 13 1.0
 6 8 1.0
 7 12 1.0
 8 9 1.0 10 1.0 11 1.0
 9
 10
 11
 12
 13

