%nprocshared=8
%nprocl=1
# opt freq b3lyp/def2tzvp geom=connectivity

Title Card Required

0 1
 C                  0.67962800   -0.02490100    0.00000000
 H                  1.04687600    1.01053800   -0.00102400
 H                  1.00913600   -0.54788200   -0.90310900
 H                  1.00919500   -0.54611200    0.90412700
 O                 -0.74642000    0.12361200    0.00000000
 H                 -1.17161200   -0.75604000    0.00000900

 1 2 1.0 3 1.0 4 1.0 5 1.0
 2
 3
 4
 5 6 1.0
 6

