%chk=C:\Users\LawalM\Desktop\DFT CHPC\ts624flan1.chk
# freq b3lyp/lanl2dz geom=connectivity

Title Card Required

0 1
 C                  1.02204800   -0.46079500    0.14494200
 O                  0.20442400   -0.95667600    1.02671300
 O                  0.20018200    0.80196400   -0.65324700
 O                 -1.77000300   -0.47138000   -0.22688500
 C                 -3.10957700   -0.10028000    0.20239800
 H                 -3.08275500    0.60885000    1.04201300
 H                 -3.62845900    0.35030700   -0.64849600
 H                 -3.64056300   -1.00765800    0.50526200
 H                 -0.95642700    0.30592100   -0.62307700
 H                 -1.05989000   -0.92992700    0.48940500
 C                  2.39267300    0.03761700    0.54551000
 H                  2.98252800   -0.83218200    0.85385900
 H                  2.89305300    0.51719300   -0.29973400
 H                  2.32543700    0.72408200    1.39394500
 C                  0.28916600    2.12237700   -0.02553400
 H                  1.30529500    2.50914500   -0.14038900
 H                 -0.40379900    2.78424200   -0.55608600
 H                  0.02331600    2.07979800    1.04051000
 F                  1.17773100   -1.29939500   -1.04819600

 1 2 1.5 11 1.0
 2
 3 15 1.0
 4 5 1.0
 5 6 1.0 7 1.0 8 1.0
 6
 7
 8
 9
 10
 11 12 1.0 13 1.0 14 1.0
 12
 13
 14
 15 16 1.0 17 1.0 18 1.0
 16
 17
 18
 19

