%chk=C:\Users\LawalM\Desktop\DFT CHPC\TS624BRLAN1.chk
# b3lyp/lanl2dz geom=connectivity

ts624Br=lan

0 1
 C                  0.29061100    0.64094800    0.57787400
 O                 -0.44598200    0.16491700    1.52919400
 O                 -0.64918000    0.82777300   -0.77291400
 O                 -1.96550200   -0.97510500    0.05523200
 C                 -3.38532200   -1.30543200    0.08151600
 H                 -3.98874300   -0.44528800    0.40004400
 H                 -3.67351200   -1.61785600   -0.92501000
 H                 -3.52777800   -2.13939000    0.77366800
 H                 -1.48660200   -0.15344300   -0.58765800
 H                 -1.44076400   -0.69790100    0.95682400
 C                  1.11809800    1.89428700    0.80067600
 H                  1.85617300    1.67187300    1.57682400
 H                  1.64511000    2.18933200   -0.10889400
 H                  0.47943500    2.71180000    1.15925000
 C                 -1.27914600    2.14100000   -0.96675500
 H                 -0.50964800    2.88072300   -1.20114800
 H                 -1.95127000    2.04243700   -1.82545100
 H                 -1.84503900    2.45434100   -0.07813700
 Br                 1.67035700   -0.83606100   -0.27406500

 1 2 1.5 11 1.0
 2
 3 15 1.0
 4 5 1.0
 5 6 1.0 7 1.0 8 1.0
 6
 7
 8
 9
 10
 11 12 1.0 13 1.0 14 1.0
 12
 13
 14
 15 16 1.0 17 1.0 18 1.0
 16
 17
 18
 19

